[TITLE]
EPANet project in CE527

[JUNCTIONS]
;ID              	Elev        	Demand      	Pattern         
 1               	6.4         	10.863      	1                 	;
 2               	7.0         	17.034      	2                 	;
 3               	6.0         	14.947      	3                 	;
 4               	8.4         	14.280      	4                 	;
 5               	7.4         	10.133      	5                 	;
 6               	9.0         	15.350      	6                 	;
 7               	9.1         	9.114       	7                 	;
 8               	9.5         	10.510      	8                 	;
 9               	8.4         	12.182      	9                 	;
 10              	10.5        	14.579      	10                	;
 11              	9.6         	9.0072      	11                	;
 12              	11.7        	7.5745      	12                	;
 13              	12.3        	15.200      	13                	;
 14              	10.6        	13.550      	14                	;
 15              	10.1        	9.226       	15                	;
 16              	9.5         	11.200      	16                	;
 17              	10.2        	11.469      	17                	;
 18              	9.6         	10.818      	18                	;
 19              	9.1         	14.675      	19                	;
 20              	13.9        	13.318      	20                	;
 21              	11.1        	14.631      	21                	;
 22              	11.4        	12.012      	22                	;
 23              	10.0        	10.326      	23                	;

[RESERVOIRS]
;ID              	Head        	Pattern         
 Reservoir       	51.4         	                	;

[TANKS]
;ID              	Elevation   	InitLevel   	MinLevel    	MaxLevel    	Diameter    	MinVol      	VolCurve

[PIPES]
;ID              	Node1           	Node2           	Length      	Diameter    	Roughness   	MinorLoss   	Status
 1               	1               	2               	348.5       	300         	130         	0           	Open  	;
 2               	2               	3               	955.7       	300         	130         	0           	Open  	;
 3               	3               	4               	483.0       	100         	130         	0           	Open  	;
 4               	3               	9               	400.7       	300         	130         	0           	Open  	;
 5               	2               	4               	791.9       	100         	130         	0           	Open  	;
 6               	1               	5               	404.4       	350         	130         	0           	Open  	;
 7               	5               	6               	390.6       	300         	130         	0           	Open  	;
 8               	6               	4               	482.3       	100         	130         	0           	Open  	;
 9               	9               	10              	934.4       	100         	130         	0           	Open  	;
 10              	11              	10              	431.3       	200         	130         	0           	Open  	;
 11              	11              	12              	513.1       	100         	130         	0           	Open  	;
 12              	10              	13              	428.4       	150         	130         	0           	Open  	;
 13              	12              	13              	419.0       	100         	130         	0           	Open  	;
 14              	22              	13              	1023.1      	100         	130         	0           	Open  	;
 15              	8               	22              	455.1       	150         	130         	0           	Open  	;
 16              	7               	8               	182.6       	200         	130         	0           	Open  	;
 17              	6               	7               	221.3       	225         	130         	0           	Open  	;
 18              	1               	19              	583.9       	100         	130         	0           	Open  	;
 19              	5               	18              	452.0       	300         	130         	0           	Open  	;
 20              	6               	16              	794.7       	100         	130         	0           	Open  	;
 21              	7               	15              	717.7       	100         	130         	0           	Open  	;
 22              	8               	14              	655.6       	100         	130         	0           	Open  	;
 23              	15              	14              	165.5       	100         	130         	0           	Open  	;
 24              	16              	15              	252.1       	100         	130         	0           	Open  	;
 25              	17              	16              	331.5       	100         	130         	0           	Open  	;
 26              	18              	17              	500.0       	300         	130         	0           	Open  	;
 27              	17              	21              	579.9       	300         	130         	0           	Open  	;
 28              	19              	23              	842.8       	100         	130         	0           	Open  	;
 29              	21              	20              	792.6       	180         	130         	0           	Open  	;
 30              	20              	14              	846.3       	100         	130         	0           	Open  	;
 31              	9               	11              	164.0       	225         	130         	0           	Open  	;
 32              	23              	21              	427.9       	100         	130         	0           	Open  	;
 33              	19              	18              	379.2       	100         	130         	0           	Open  	;
 34              	Reservoir       	1               	158.2        	350         	150         	0           	OPEN  	;

[PUMPS]
;ID              	Node1           	Node2           	Parameters

[VALVES]
;ID              	Node1           	Node2           	Diameter    	Type	Setting     	MinorLoss   

[TAGS]

[DEMANDS]
;Junction        	Demand      	Pattern         	Category

[STATUS]
;ID              	Status/Setting

[PATTERNS]
;ID              	Multipliers
;ID              	Multipliers  
1 0.6500	0.6500	0.6500	0.6500	0.6500	0.6500	0.6467	0.6433	0.6400	0.6367	0.6333	0.6300	0.6267	0.6233	0.6200	0.6167	0.6133	0.6100	0.6092	0.6083	0.6075	0.6067	0.6058	0.6050
1 0.6042	0.6033	0.6025	0.6017	0.6008	0.6000	0.5983	0.5967	0.5950	0.5933	0.5917	0.5900	0.5883	0.5867	0.5850	0.5833	0.5817	0.5800	0.5833	0.5867	0.5900	0.5933	0.5967	0.6000
1 0.6033	0.6067	0.6100	0.6133	0.6167	0.6200	0.6333	0.6467	0.6600	0.6733	0.6867	0.7000	0.7133	0.7267	0.7400	0.7533	0.7667	0.7800	0.7967	0.8133	0.8300	0.8467	0.8633	0.8800
1 0.8967	0.9133	0.9300	0.9467	0.9633	0.9800	0.9983	1.0167	1.0350	1.0533	1.0717	1.0900	1.1083	1.1267	1.1450	1.1633	1.1817	1.2000	1.2142	1.2283	1.2425	1.2567	1.2708	1.2850
1 1.2992	1.3133	1.3275	1.3417	1.3558	1.3700	1.3583	1.3467	1.3350	1.3233	1.3117	1.3000	1.2883	1.2767	1.2650	1.2533	1.2417	1.2300	1.2192	1.2083	1.1975	1.1867	1.1758	1.1650
1 1.1542	1.1433	1.1325	1.1217	1.1108	1.1000	1.0933	1.0867	1.0800	1.0733	1.0667	1.0600	1.0533	1.0467	1.0400	1.0333	1.0267	1.0200	1.0167	1.0133	1.0100	1.0067	1.0033	1.0000
1 0.9967	0.9933	0.9900	0.9867	0.9833	0.9800	0.9775	0.9750	0.9725	0.9700	0.9675	0.9650	0.9625	0.9600	0.9575	0.9550	0.9525	0.9500	0.9550	0.9600	0.9650	0.9700	0.9750	0.9800
1 0.9850	0.9900	0.9950	1.0000	1.0050	1.0100	1.0175	1.0250	1.0325	1.0400	1.0475	1.0550	1.0625	1.0700	1.0775	1.0850	1.0925	1.1000	1.1083	1.1167	1.1250	1.1333	1.1417	1.1500
1 1.1583	1.1667	1.1750	1.1833	1.1917	1.2000	1.2083	1.2167	1.2250	1.2333	1.2417	1.2500	1.2583	1.2667	1.2750	1.2833	1.2917	1.3000	1.3167	1.3333	1.3500	1.3667	1.3833	1.4000
1 1.4167	1.4333	1.4500	1.4667	1.4833	1.5000	1.4958	1.4917	1.4875	1.4833	1.4792	1.4750	1.4708	1.4667	1.4625	1.4583	1.4542	1.4500	1.4358	1.4217	1.4075	1.3933	1.3792	1.3650
1 1.3508	1.3367	1.3225	1.3083	1.2942	1.2800	1.2567	1.2333	1.2100	1.1867	1.1633	1.1400	1.1167	1.0933	1.0700	1.0467	1.0233	1.0000	0.9883	0.9767	0.9650	0.9533	0.9417	0.9300
1 0.9183	0.9067	0.8950	0.8833	0.8717	0.8600	0.8425	0.8250	0.8075	0.7900	0.7725	0.7550	0.7375	0.7200	0.7025	0.6850	0.6675	0.6500	0.6500	0.6500	0.6500	0.6500	0.6500	0.6500
1 0.6500	0.6500	0.6500	0.6500	0.6500	0.6500	0.6467	0.6433	0.6400	0.6367	0.6333	0.6300	0.6267	0.6233	0.6200	0.6167	0.6133	0.6100	0.6092	0.6083	0.6075	0.6067	0.6058	0.6050
1 0.6042	0.6033	0.6025	0.6017	0.6008	0.6000	0.5983	0.5967	0.5950	0.5933	0.5917	0.5900	0.5883	0.5867	0.5850	0.5833	0.5817	0.5800	0.5833	0.5867	0.5900	0.5933	0.5967	0.6000
1 0.6033	0.6067	0.6100	0.6133	0.6167	0.6200	0.6333	0.6467	0.6600	0.6733	0.6867	0.7000	0.7133	0.7267	0.7400	0.7533	0.7667	0.7800	0.7967	0.8133	0.8300	0.8467	0.8633	0.8800
1 0.8967	0.9133	0.9300	0.9467	0.9633	0.9800	0.9983	1.0167	1.0350	1.0533	1.0717	1.0900	1.1083	1.1267	1.1450	1.1633	1.1817	1.2000	1.2142	1.2283	1.2425	1.2567	1.2708	1.2850
1 1.2992	1.3133	1.3275	1.3417	1.3558	1.3700	1.3583	1.3467	1.3350	1.3233	1.3117	1.3000	1.2883	1.2767	1.2650	1.2533	1.2417	1.2300	1.2192	1.2083	1.1975	1.1867	1.1758	1.1650
1 1.1542	1.1433	1.1325	1.1217	1.1108	1.1000	1.0933	1.0867	1.0800	1.0733	1.0667	1.0600	1.0533	1.0467	1.0400	1.0333	1.0267	1.0200	1.0167	1.0133	1.0100	1.0067	1.0033	1.0000
1 0.9967	0.9933	0.9900	0.9867	0.9833	0.9800	0.9775	0.9750	0.9725	0.9700	0.9675	0.9650	0.9625	0.9600	0.9575	0.9550	0.9525	0.9500	0.9550	0.9600	0.9650	0.9700	0.9750	0.9800
1 0.9850	0.9900	0.9950	1.0000	1.0050	1.0100	1.0175	1.0250	1.0325	1.0400	1.0475	1.0550	1.0625	1.0700	1.0775	1.0850	1.0925	1.1000	1.1083	1.1167	1.1250	1.1333	1.1417	1.1500
1 1.1583	1.1667	1.1750	1.1833	1.1917	1.2000	1.2083	1.2167	1.2250	1.2333	1.2417	1.2500	1.2583	1.2667	1.2750	1.2833	1.2917	1.3000	1.3167	1.3333	1.3500	1.3667	1.3833	1.4000
1 1.4167	1.4333	1.4500	1.4667	1.4833	1.5000	1.4958	1.4917	1.4875	1.4833	1.4792	1.4750	1.4708	1.4667	1.4625	1.4583	1.4542	1.4500	1.4358	1.4217	1.4075	1.3933	1.3792	1.3650
1 1.3508	1.3367	1.3225	1.3083	1.2942	1.2800	1.2567	1.2333	1.2100	1.1867	1.1633	1.1400	1.1167	1.0933	1.0700	1.0467	1.0233	1.0000	0.9883	0.9767	0.9650	0.9533	0.9417	0.9300
1 0.9183	0.9067	0.8950	0.8833	0.8717	0.8600	0.8425	0.8250	0.8075	0.7900	0.7725	0.7550	0.7375	0.7200	0.7025	0.6850	0.6675	0.6500	0.6500	0.6500	0.6500	0.6500	0.6500	0.6500
;
2 0.6500	0.6500	0.6500	0.6500	0.6500	0.6500	0.6467	0.6433	0.6400	0.6367	0.6333	0.6300	0.6267	0.6233	0.6200	0.6167	0.6133	0.6100	0.6092	0.6083	0.6075	0.6067	0.6058	0.6050
2 0.6042	0.6033	0.6025	0.6017	0.6008	0.6000	0.5983	0.5967	0.5950	0.5933	0.5917	0.5900	0.5883	0.5867	0.5850	0.5833	0.5817	0.5800	0.5833	0.5867	0.5900	0.5933	0.5967	0.6000
2 0.6033	0.6067	0.6100	0.6133	0.6167	0.6200	0.6333	0.6467	0.6600	0.6733	0.6867	0.7000	0.7133	0.7267	0.7400	0.7533	0.7667	0.7800	0.7967	0.8133	0.8300	0.8467	0.8633	0.8800
2 0.8967	0.9133	0.9300	0.9467	0.9633	0.9800	0.9983	1.0167	1.0350	1.0533	1.0717	1.0900	1.1083	1.1267	1.1450	1.1633	1.1817	1.2000	1.2142	1.2283	1.2425	1.2567	1.2708	1.2850
2 1.2992	1.3133	1.3275	1.3417	1.3558	1.3700	1.3583	1.3467	1.3350	1.3233	1.3117	1.3000	1.2883	1.2767	1.2650	1.2533	1.2417	1.2300	1.2192	1.2083	1.1975	1.1867	1.1758	1.1650
2 1.1542	1.1433	1.1325	1.1217	1.1108	1.1000	1.0933	1.0867	1.0800	1.0733	1.0667	1.0600	1.0533	1.0467	1.0400	1.0333	1.0267	1.0200	1.0167	1.0133	1.0100	1.0067	1.0033	1.0000
2 0.9967	0.9933	0.9900	0.9867	0.9833	0.9800	0.9775	0.9750	0.9725	0.9700	0.9675	0.9650	0.9625	0.9600	0.9575	0.9550	0.9525	0.9500	0.9550	0.9600	0.9650	0.9700	0.9750	0.9800
2 0.9850	0.9900	0.9950	1.0000	1.0050	1.0100	1.0175	1.0250	1.0325	1.0400	1.0475	1.0550	1.0625	1.0700	1.0775	1.0850	1.0925	1.1000	1.1083	1.1167	1.1250	1.1333	1.1417	1.1500
2 1.1583	1.1667	1.1750	1.1833	1.1917	1.2000	1.2083	1.2167	1.2250	1.2333	1.2417	1.2500	1.2583	1.2667	1.2750	1.2833	1.2917	1.3000	1.3167	1.3333	1.3500	1.3667	1.3833	1.4000
2 1.4167	1.4333	1.4500	1.4667	1.4833	1.5000	1.4958	1.4917	1.4875	1.4833	1.4792	1.4750	1.4708	1.4667	1.4625	1.4583	1.4542	1.4500	1.4358	1.4217	1.4075	1.3933	1.3792	1.3650
2 1.3508	1.3367	1.3225	1.3083	1.2942	1.2800	1.2567	1.2333	1.2100	1.1867	1.1633	1.1400	1.1167	1.0933	1.0700	1.0467	1.0233	1.0000	0.9883	0.9767	0.9650	0.9533	0.9417	0.9300
2 0.9183	0.9067	0.8950	0.8833	0.8717	0.8600	0.8425	0.8250	0.8075	0.7900	0.7725	0.7550	0.7375	0.7200	0.7025	0.6850	0.6675	0.6500	0.6500	0.6500	0.6500	0.6500	0.6500	0.6500
2 0.6500	0.6500	0.6500	0.6500	0.6500	0.6500	0.6467	0.6433	0.6400	0.6367	0.6333	0.6300	0.6267	0.6233	0.6200	0.6167	0.6133	0.6100	0.6092	0.6083	0.6075	0.6067	0.6058	0.6050
2 0.6042	0.6033	0.6025	0.6017	0.6008	0.6000	0.5983	0.5967	0.5950	0.5933	0.5917	0.5900	0.5883	0.5867	0.5850	0.5833	0.5817	0.5800	0.5833	0.5867	0.5900	0.5933	0.5967	0.6000
2 0.6033	0.6067	0.6100	0.6133	0.6167	0.6200	0.6333	0.6467	0.6600	0.6733	0.6867	0.7000	0.7133	0.7267	0.7400	0.7533	0.7667	0.7800	0.7967	0.8133	0.8300	0.8467	0.8633	0.8800
2 0.8967	0.9133	0.9300	0.9467	0.9633	0.9800	0.9983	1.0167	1.0350	1.0533	1.0717	1.0900	1.1083	1.1267	1.1450	1.1633	1.1817	1.2000	1.2142	1.2283	1.2425	1.2567	1.2708	1.2850
2 1.2992	1.3133	1.3275	1.3417	1.3558	1.3700	1.3583	1.3467	1.3350	1.3233	1.3117	1.3000	1.2883	1.2767	1.2650	1.2533	1.2417	1.2300	1.2192	1.2083	1.1975	1.1867	1.1758	1.1650
2 1.1542	1.1433	1.1325	1.1217	1.1108	1.1000	1.0933	1.0867	1.0800	1.0733	1.0667	1.0600	1.0533	1.0467	1.0400	1.0333	1.0267	1.0200	1.0167	1.0133	1.0100	1.0067	1.0033	1.0000
2 0.9967	0.9933	0.9900	0.9867	0.9833	0.9800	0.9775	0.9750	0.9725	0.9700	0.9675	0.9650	0.9625	0.9600	0.9575	0.9550	0.9525	0.9500	0.9550	0.9600	0.9650	0.9700	0.9750	0.9800
2 0.9850	0.9900	0.9950	1.0000	1.0050	1.0100	1.0175	1.0250	1.0325	1.0400	1.0475	1.0550	1.0625	1.0700	1.0775	1.0850	1.0925	1.1000	1.1083	1.1167	1.1250	1.1333	1.1417	1.1500
2 1.1583	1.1667	1.1750	1.1833	1.1917	1.2000	1.2083	1.2167	1.2250	1.2333	1.2417	1.2500	1.2583	1.2667	1.2750	1.2833	1.2917	1.3000	1.3167	1.3333	1.3500	1.3667	1.3833	1.4000
2 1.4167	1.4333	1.4500	1.4667	1.4833	1.5000	1.4958	1.4917	1.4875	1.4833	1.4792	1.4750	1.4708	1.4667	1.4625	1.4583	1.4542	1.4500	1.4358	1.4217	1.4075	1.3933	1.3792	1.3650
2 1.3508	1.3367	1.3225	1.3083	1.2942	1.2800	1.2567	1.2333	1.2100	1.1867	1.1633	1.1400	1.1167	1.0933	1.0700	1.0467	1.0233	1.0000	0.9883	0.9767	0.9650	0.9533	0.9417	0.9300
2 0.9183	0.9067	0.8950	0.8833	0.8717	0.8600	0.8425	0.8250	0.8075	0.7900	0.7725	0.7550	0.7375	0.7200	0.7025	0.6850	0.6675	0.6500	0.6500	0.6500	0.6500	0.6500	0.6500	0.6500
;
3 0.6500	0.6500	0.6500	0.6500	0.6500	0.6500	0.6467	0.6433	0.6400	0.6367	0.6333	0.6300	0.6267	0.6233	0.6200	0.6167	0.6133	0.6100	0.6092	0.6083	0.6075	0.6067	0.6058	0.6050
3 0.6042	0.6033	0.6025	0.6017	0.6008	0.6000	0.5983	0.5967	0.5950	0.5933	0.5917	0.5900	0.5883	0.5867	0.5850	0.5833	0.5817	0.5800	0.5833	0.5867	0.5900	0.5933	0.5967	0.6000
3 0.6033	0.6067	0.6100	0.6133	0.6167	0.6200	0.6333	0.6467	0.6600	0.6733	0.6867	0.7000	0.7133	0.7267	0.7400	0.7533	0.7667	0.7800	0.7967	0.8133	0.8300	0.8467	0.8633	0.8800
3 0.8967	0.9133	0.9300	0.9467	0.9633	0.9800	0.9983	1.0167	1.0350	1.0533	1.0717	1.0900	1.1083	1.1267	1.1450	1.1633	1.1817	1.2000	1.2142	1.2283	1.2425	1.2567	1.2708	1.2850
3 1.2992	1.3133	1.3275	1.3417	1.3558	1.3700	1.3583	1.3467	1.3350	1.3233	1.3117	1.3000	1.2883	1.2767	1.2650	1.2533	1.2417	1.2300	1.2192	1.2083	1.1975	1.1867	1.1758	1.1650
3 1.1542	1.1433	1.1325	1.1217	1.1108	1.1000	1.0933	1.0867	1.0800	1.0733	1.0667	1.0600	1.0533	1.0467	1.0400	1.0333	1.0267	1.0200	1.0167	1.0133	1.0100	1.0067	1.0033	1.0000
3 0.9967	0.9933	0.9900	0.9867	0.9833	0.9800	0.9775	0.9750	0.9725	0.9700	0.9675	0.9650	0.9625	0.9600	0.9575	0.9550	0.9525	0.9500	0.9550	0.9600	0.9650	0.9700	0.9750	0.9800
3 0.9850	0.9900	0.9950	1.0000	1.0050	1.0100	1.0175	1.0250	1.0325	1.0400	1.0475	1.0550	1.0625	1.0700	1.0775	1.0850	1.0925	1.1000	1.1083	1.1167	1.1250	1.1333	1.1417	1.1500
3 1.1583	1.1667	1.1750	1.1833	1.1917	1.2000	1.2083	1.2167	1.2250	1.2333	1.2417	1.2500	1.2583	1.2667	1.2750	1.2833	1.2917	1.3000	1.3167	1.3333	1.3500	1.3667	1.3833	1.4000
3 1.4167	1.4333	1.4500	1.4667	1.4833	1.5000	1.4958	1.4917	1.4875	1.4833	1.4792	1.4750	1.4708	1.4667	1.4625	1.4583	1.4542	1.4500	1.4358	1.4217	1.4075	1.3933	1.3792	1.3650
3 1.3508	1.3367	1.3225	1.3083	1.2942	1.2800	1.2567	1.2333	1.2100	1.1867	1.1633	1.1400	1.1167	1.0933	1.0700	1.0467	1.0233	1.0000	0.9883	0.9767	0.9650	0.9533	0.9417	0.9300
3 0.9183	0.9067	0.8950	0.8833	0.8717	0.8600	0.8425	0.8250	0.8075	0.7900	0.7725	0.7550	0.7375	0.7200	0.7025	0.6850	0.6675	0.6500	0.6500	0.6500	0.6500	0.6500	0.6500	0.6500
3 0.6500	0.6500	0.6500	0.6500	0.6500	0.6500	0.6467	0.6433	0.6400	0.6367	0.6333	0.6300	0.6267	0.6233	0.6200	0.6167	0.6133	0.6100	0.6092	0.6083	0.6075	0.6067	0.6058	0.6050
3 0.6042	0.6033	0.6025	0.6017	0.6008	0.6000	0.5983	0.5967	0.5950	0.5933	0.5917	0.5900	0.5883	0.5867	0.5850	0.5833	0.5817	0.5800	0.5833	0.5867	0.5900	0.5933	0.5967	0.6000
3 0.6033	0.6067	0.6100	0.6133	0.6167	0.6200	0.6333	0.6467	0.6600	0.6733	0.6867	0.7000	0.7133	0.7267	0.7400	0.7533	0.7667	0.7800	0.7967	0.8133	0.8300	0.8467	0.8633	0.8800
3 0.8967	0.9133	0.9300	0.9467	0.9633	0.9800	0.9983	1.0167	1.0350	1.0533	1.0717	1.0900	1.1083	1.1267	1.1450	1.1633	1.1817	1.2000	1.2142	1.2283	1.2425	1.2567	1.2708	1.2850
3 1.2992	1.3133	1.3275	1.3417	1.3558	1.3700	1.3583	1.3467	1.3350	1.3233	1.3117	1.3000	1.2883	1.2767	1.2650	1.2533	1.2417	1.2300	1.2192	1.2083	1.1975	1.1867	1.1758	1.1650
3 1.1542	1.1433	1.1325	1.1217	1.1108	1.1000	1.0933	1.0867	1.0800	1.0733	1.0667	1.0600	1.0533	1.0467	1.0400	1.0333	1.0267	1.0200	1.0167	1.0133	1.0100	1.0067	1.0033	1.0000
3 0.9967	0.9933	0.9900	0.9867	0.9833	0.9800	0.9775	0.9750	0.9725	0.9700	0.9675	0.9650	0.9625	0.9600	0.9575	0.9550	0.9525	0.9500	0.9550	0.9600	0.9650	0.9700	0.9750	0.9800
3 0.9850	0.9900	0.9950	1.0000	1.0050	1.0100	1.0175	1.0250	1.0325	1.0400	1.0475	1.0550	1.0625	1.0700	1.0775	1.0850	1.0925	1.1000	1.1083	1.1167	1.1250	1.1333	1.1417	1.1500
3 1.1583	1.1667	1.1750	1.1833	1.1917	1.2000	1.2083	1.2167	1.2250	1.2333	1.2417	1.2500	1.2583	1.2667	1.2750	1.2833	1.2917	1.3000	1.3167	1.3333	1.3500	1.3667	1.3833	1.4000
3 1.4167	1.4333	1.4500	1.4667	1.4833	1.5000	1.4958	1.4917	1.4875	1.4833	1.4792	1.4750	1.4708	1.4667	1.4625	1.4583	1.4542	1.4500	1.4358	1.4217	1.4075	1.3933	1.3792	1.3650
3 1.3508	1.3367	1.3225	1.3083	1.2942	1.2800	1.2567	1.2333	1.2100	1.1867	1.1633	1.1400	1.1167	1.0933	1.0700	1.0467	1.0233	1.0000	0.9883	0.9767	0.9650	0.9533	0.9417	0.9300
3 0.9183	0.9067	0.8950	0.8833	0.8717	0.8600	0.8425	0.8250	0.8075	0.7900	0.7725	0.7550	0.7375	0.7200	0.7025	0.6850	0.6675	0.6500	0.6500	0.6500	0.6500	0.6500	0.6500	0.6500
;
4 0.6500	0.6500	0.6500	0.6500	0.6500	0.6500	0.6467	0.6433	0.6400	0.6367	0.6333	0.6300	0.6267	0.6233	0.6200	0.6167	0.6133	0.6100	0.6092	0.6083	0.6075	0.6067	0.6058	0.6050
4 0.6042	0.6033	0.6025	0.6017	0.6008	0.6000	0.5983	0.5967	0.5950	0.5933	0.5917	0.5900	0.5883	0.5867	0.5850	0.5833	0.5817	0.5800	0.5833	0.5867	0.5900	0.5933	0.5967	0.6000
4 0.6033	0.6067	0.6100	0.6133	0.6167	0.6200	0.6333	0.6467	0.6600	0.6733	0.6867	0.7000	0.7133	0.7267	0.7400	0.7533	0.7667	0.7800	0.7967	0.8133	0.8300	0.8467	0.8633	0.8800
4 0.8967	0.9133	0.9300	0.9467	0.9633	0.9800	0.9983	1.0167	1.0350	1.0533	1.0717	1.0900	1.1083	1.1267	1.1450	1.1633	1.1817	1.2000	1.2142	1.2283	1.2425	1.2567	1.2708	1.2850
4 1.2992	1.3133	1.3275	1.3417	1.3558	1.3700	1.3583	1.3467	1.3350	1.3233	1.3117	1.3000	1.2883	1.2767	1.2650	1.2533	1.2417	1.2300	1.2192	1.2083	1.1975	1.1867	1.1758	1.1650
4 1.1542	1.1433	1.1325	1.1217	1.1108	1.1000	1.0933	1.0867	1.0800	1.0733	1.0667	1.0600	1.0533	1.0467	1.0400	1.0333	1.0267	1.0200	1.0167	1.0133	1.0100	1.0067	1.0033	1.0000
4 0.9967	0.9933	0.9900	0.9867	0.9833	0.9800	0.9775	0.9750	0.9725	0.9700	0.9675	0.9650	0.9625	0.9600	0.9575	0.9550	0.9525	0.9500	0.9550	0.9600	0.9650	0.9700	0.9750	0.9800
4 0.9850	0.9900	0.9950	1.0000	1.0050	1.0100	1.0175	1.0250	1.0325	1.0400	1.0475	1.0550	1.0625	1.0700	1.0775	1.0850	1.0925	1.1000	1.1083	1.1167	1.1250	1.1333	1.1417	1.1500
4 1.1583	1.1667	1.1750	1.1833	1.1917	1.2000	1.2083	1.2167	1.2250	1.2333	1.2417	1.2500	1.2583	1.2667	1.2750	1.2833	1.2917	1.3000	1.3167	1.3333	1.3500	1.3667	1.3833	1.4000
4 1.4167	1.4333	1.4500	1.4667	1.4833	1.5000	1.4958	1.4917	1.4875	1.4833	1.4792	1.4750	1.4708	1.4667	1.4625	1.4583	1.4542	1.4500	1.4358	1.4217	1.4075	1.3933	1.3792	1.3650
4 1.3508	1.3367	1.3225	1.3083	1.2942	1.2800	1.2567	1.2333	1.2100	1.1867	1.1633	1.1400	1.1167	1.0933	1.0700	1.0467	1.0233	1.0000	0.9883	0.9767	0.9650	0.9533	0.9417	0.9300
4 0.9183	0.9067	0.8950	0.8833	0.8717	0.8600	0.8425	0.8250	0.8075	0.7900	0.7725	0.7550	0.7375	0.7200	0.7025	0.6850	0.6675	0.6500	0.6500	0.6500	0.6500	0.6500	0.6500	0.6500
4 0.6500	0.6500	0.6500	0.6500	0.6500	0.6500	0.6467	0.6433	0.6400	0.6367	0.6333	0.6300	0.6267	0.6233	0.6200	0.6167	0.6133	0.6100	0.6092	0.6083	0.6075	0.6067	0.6058	0.6050
4 0.6042	0.6033	0.6025	0.6017	0.6008	0.6000	0.5983	0.5967	0.5950	0.5933	0.5917	0.5900	0.5883	0.5867	0.5850	0.5833	0.5817	0.5800	0.5833	0.5867	0.5900	0.5933	0.5967	0.6000
4 0.6033	0.6067	0.6100	0.6133	0.6167	0.6200	0.6333	0.6467	0.6600	0.6733	0.6867	0.7000	0.7133	0.7267	0.7400	0.7533	0.7667	0.7800	0.7967	0.8133	0.8300	0.8467	0.8633	0.8800
4 0.8967	0.9133	0.9300	0.9467	0.9633	0.9800	0.9983	1.0167	1.0350	1.0533	1.0717	1.0900	1.1083	1.1267	1.1450	1.1633	1.1817	1.2000	1.2142	1.2283	1.2425	1.2567	1.2708	1.2850
4 1.2992	1.3133	1.3275	1.3417	1.3558	1.3700	1.3583	1.3467	1.3350	1.3233	1.3117	1.3000	1.2883	1.2767	1.2650	1.2533	1.2417	1.2300	1.2192	1.2083	1.1975	1.1867	1.1758	1.1650
4 1.1542	1.1433	1.1325	1.1217	1.1108	1.1000	1.0933	1.0867	1.0800	1.0733	1.0667	1.0600	1.0533	1.0467	1.0400	1.0333	1.0267	1.0200	1.0167	1.0133	1.0100	1.0067	1.0033	1.0000
4 0.9967	0.9933	0.9900	0.9867	0.9833	0.9800	0.9775	0.9750	0.9725	0.9700	0.9675	0.9650	0.9625	0.9600	0.9575	0.9550	0.9525	0.9500	0.9550	0.9600	0.9650	0.9700	0.9750	0.9800
4 0.9850	0.9900	0.9950	1.0000	1.0050	1.0100	1.0175	1.0250	1.0325	1.0400	1.0475	1.0550	1.0625	1.0700	1.0775	1.0850	1.0925	1.1000	1.1083	1.1167	1.1250	1.1333	1.1417	1.1500
4 1.1583	1.1667	1.1750	1.1833	1.1917	1.2000	1.2083	1.2167	1.2250	1.2333	1.2417	1.2500	1.2583	1.2667	1.2750	1.2833	1.2917	1.3000	1.3167	1.3333	1.3500	1.3667	1.3833	1.4000
4 1.4167	1.4333	1.4500	1.4667	1.4833	1.5000	1.4958	1.4917	1.4875	1.4833	1.4792	1.4750	1.4708	1.4667	1.4625	1.4583	1.4542	1.4500	1.4358	1.4217	1.4075	1.3933	1.3792	1.3650
4 1.3508	1.3367	1.3225	1.3083	1.2942	1.2800	1.2567	1.2333	1.2100	1.1867	1.1633	1.1400	1.1167	1.0933	1.0700	1.0467	1.0233	1.0000	0.9883	0.9767	0.9650	0.9533	0.9417	0.9300
4 0.9183	0.9067	0.8950	0.8833	0.8717	0.8600	0.8425	0.8250	0.8075	0.7900	0.7725	0.7550	0.7375	0.7200	0.7025	0.6850	0.6675	0.6500	0.6500	0.6500	0.6500	0.6500	0.6500	0.6500
;
5 0.6500	0.6500	0.6500	0.6500	0.6500	0.6500	0.6467	0.6433	0.6400	0.6367	0.6333	0.6300	0.6267	0.6233	0.6200	0.6167	0.6133	0.6100	0.6092	0.6083	0.6075	0.6067	0.6058	0.6050
5 0.6042	0.6033	0.6025	0.6017	0.6008	0.6000	0.5983	0.5967	0.5950	0.5933	0.5917	0.5900	0.5883	0.5867	0.5850	0.5833	0.5817	0.5800	0.5833	0.5867	0.5900	0.5933	0.5967	0.6000
5 0.6033	0.6067	0.6100	0.6133	0.6167	0.6200	0.6333	0.6467	0.6600	0.6733	0.6867	0.7000	0.7133	0.7267	0.7400	0.7533	0.7667	0.7800	0.7967	0.8133	0.8300	0.8467	0.8633	0.8800
5 0.8967	0.9133	0.9300	0.9467	0.9633	0.9800	0.9983	1.0167	1.0350	1.0533	1.0717	1.0900	1.1083	1.1267	1.1450	1.1633	1.1817	1.2000	1.2142	1.2283	1.2425	1.2567	1.2708	1.2850
5 1.2992	1.3133	1.3275	1.3417	1.3558	1.3700	1.3583	1.3467	1.3350	1.3233	1.3117	1.3000	1.2883	1.2767	1.2650	1.2533	1.2417	1.2300	1.2192	1.2083	1.1975	1.1867	1.1758	1.1650
5 1.1542	1.1433	1.1325	1.1217	1.1108	1.1000	1.0933	1.0867	1.0800	1.0733	1.0667	1.0600	1.0533	1.0467	1.0400	1.0333	1.0267	1.0200	1.0167	1.0133	1.0100	1.0067	1.0033	1.0000
5 0.9967	0.9933	0.9900	0.9867	0.9833	0.9800	0.9775	0.9750	0.9725	0.9700	0.9675	0.9650	0.9625	0.9600	0.9575	0.9550	0.9525	0.9500	0.9550	0.9600	0.9650	0.9700	0.9750	0.9800
5 0.9850	0.9900	0.9950	1.0000	1.0050	1.0100	1.0175	1.0250	1.0325	1.0400	1.0475	1.0550	1.0625	1.0700	1.0775	1.0850	1.0925	1.1000	1.1083	1.1167	1.1250	1.1333	1.1417	1.1500
5 1.1583	1.1667	1.1750	1.1833	1.1917	1.2000	1.2083	1.2167	1.2250	1.2333	1.2417	1.2500	1.2583	1.2667	1.2750	1.2833	1.2917	1.3000	1.3167	1.3333	1.3500	1.3667	1.3833	1.4000
5 1.4167	1.4333	1.4500	1.4667	1.4833	1.5000	1.4958	1.4917	1.4875	1.4833	1.4792	1.4750	1.4708	1.4667	1.4625	1.4583	1.4542	1.4500	1.4358	1.4217	1.4075	1.3933	1.3792	1.3650
5 1.3508	1.3367	1.3225	1.3083	1.2942	1.2800	1.2567	1.2333	1.2100	1.1867	1.1633	1.1400	1.1167	1.0933	1.0700	1.0467	1.0233	1.0000	0.9883	0.9767	0.9650	0.9533	0.9417	0.9300
5 0.9183	0.9067	0.8950	0.8833	0.8717	0.8600	0.8425	0.8250	0.8075	0.7900	0.7725	0.7550	0.7375	0.7200	0.7025	0.6850	0.6675	0.6500	0.6500	0.6500	0.6500	0.6500	0.6500	0.6500
5 0.6500	0.6500	0.6500	0.6500	0.6500	0.6500	0.6467	0.6433	0.6400	0.6367	0.6333	0.6300	0.6267	0.6233	0.6200	0.6167	0.6133	0.6100	0.6092	0.6083	0.6075	0.6067	0.6058	0.6050
5 0.6042	0.6033	0.6025	0.6017	0.6008	0.6000	0.5983	0.5967	0.5950	0.5933	0.5917	0.5900	0.5883	0.5867	0.5850	0.5833	0.5817	0.5800	0.5833	0.5867	0.5900	0.5933	0.5967	0.6000
5 0.6033	0.6067	0.6100	0.6133	0.6167	0.6200	0.6333	0.6467	0.6600	0.6733	0.6867	0.7000	0.7133	0.7267	0.7400	0.7533	0.7667	0.7800	0.7967	0.8133	0.8300	0.8467	0.8633	0.8800
5 0.8967	0.9133	0.9300	0.9467	0.9633	0.9800	0.9983	1.0167	1.0350	1.0533	1.0717	1.0900	1.1083	1.1267	1.1450	1.1633	1.1817	1.2000	1.2142	1.2283	1.2425	1.2567	1.2708	1.2850
5 1.2992	1.3133	1.3275	1.3417	1.3558	1.3700	1.3583	1.3467	1.3350	1.3233	1.3117	1.3000	1.2883	1.2767	1.2650	1.2533	1.2417	1.2300	1.2192	1.2083	1.1975	1.1867	1.1758	1.1650
5 1.1542	1.1433	1.1325	1.1217	1.1108	1.1000	1.0933	1.0867	1.0800	1.0733	1.0667	1.0600	1.0533	1.0467	1.0400	1.0333	1.0267	1.0200	1.0167	1.0133	1.0100	1.0067	1.0033	1.0000
5 0.9967	0.9933	0.9900	0.9867	0.9833	0.9800	0.9775	0.9750	0.9725	0.9700	0.9675	0.9650	0.9625	0.9600	0.9575	0.9550	0.9525	0.9500	0.9550	0.9600	0.9650	0.9700	0.9750	0.9800
5 0.9850	0.9900	0.9950	1.0000	1.0050	1.0100	1.0175	1.0250	1.0325	1.0400	1.0475	1.0550	1.0625	1.0700	1.0775	1.0850	1.0925	1.1000	1.1083	1.1167	1.1250	1.1333	1.1417	1.1500
5 1.1583	1.1667	1.1750	1.1833	1.1917	1.2000	1.2083	1.2167	1.2250	1.2333	1.2417	1.2500	1.2583	1.2667	1.2750	1.2833	1.2917	1.3000	1.3167	1.3333	1.3500	1.3667	1.3833	1.4000
5 1.4167	1.4333	1.4500	1.4667	1.4833	1.5000	1.4958	1.4917	1.4875	1.4833	1.4792	1.4750	1.4708	1.4667	1.4625	1.4583	1.4542	1.4500	1.4358	1.4217	1.4075	1.3933	1.3792	1.3650
5 1.3508	1.3367	1.3225	1.3083	1.2942	1.2800	1.2567	1.2333	1.2100	1.1867	1.1633	1.1400	1.1167	1.0933	1.0700	1.0467	1.0233	1.0000	0.9883	0.9767	0.9650	0.9533	0.9417	0.9300
5 0.9183	0.9067	0.8950	0.8833	0.8717	0.8600	0.8425	0.8250	0.8075	0.7900	0.7725	0.7550	0.7375	0.7200	0.7025	0.6850	0.6675	0.6500	0.6500	0.6500	0.6500	0.6500	0.6500	0.6500  
;
6 0.6500	0.6500	0.6500	0.6500	0.6500	0.6500	0.6467	0.6433	0.6400	0.6367	0.6333	0.6300	0.6267	0.6233	0.6200	0.6167	0.6133	0.6100	0.6092	0.6083	0.6075	0.6067	0.6058	0.6050
6 0.6042	0.6033	0.6025	0.6017	0.6008	0.6000	0.5983	0.5967	0.5950	0.5933	0.5917	0.5900	0.5883	0.5867	0.5850	0.5833	0.5817	0.5800	0.5833	0.5867	0.5900	0.5933	0.5967	0.6000
6 0.6033	0.6067	0.6100	0.6133	0.6167	0.6200	0.6333	0.6467	0.6600	0.6733	0.6867	0.7000	0.7133	0.7267	0.7400	0.7533	0.7667	0.7800	0.7967	0.8133	0.8300	0.8467	0.8633	0.8800
6 0.8967	0.9133	0.9300	0.9467	0.9633	0.9800	0.9983	1.0167	1.0350	1.0533	1.0717	1.0900	1.1083	1.1267	1.1450	1.1633	1.1817	1.2000	1.2142	1.2283	1.2425	1.2567	1.2708	1.2850
6 1.2992	1.3133	1.3275	1.3417	1.3558	1.3700	1.3583	1.3467	1.3350	1.3233	1.3117	1.3000	1.2883	1.2767	1.2650	1.2533	1.2417	1.2300	1.2192	1.2083	1.1975	1.1867	1.1758	1.1650
6 1.1542	1.1433	1.1325	1.1217	1.1108	1.1000	1.0933	1.0867	1.0800	1.0733	1.0667	1.0600	1.0533	1.0467	1.0400	1.0333	1.0267	1.0200	1.0167	1.0133	1.0100	1.0067	1.0033	1.0000
6 0.9967	0.9933	0.9900	0.9867	0.9833	0.9800	0.9775	0.9750	0.9725	0.9700	0.9675	0.9650	0.9625	0.9600	0.9575	0.9550	0.9525	0.9500	0.9550	0.9600	0.9650	0.9700	0.9750	0.9800
6 0.9850	0.9900	0.9950	1.0000	1.0050	1.0100	1.0175	1.0250	1.0325	1.0400	1.0475	1.0550	1.0625	1.0700	1.0775	1.0850	1.0925	1.1000	1.1083	1.1167	1.1250	1.1333	1.1417	1.1500
6 1.1583	1.1667	1.1750	1.1833	1.1917	1.2000	1.2083	1.2167	1.2250	1.2333	1.2417	1.2500	1.2583	1.2667	1.2750	1.2833	1.2917	1.3000	1.3167	1.3333	1.3500	1.3667	1.3833	1.4000
6 1.4167	1.4333	1.4500	1.4667	1.4833	1.5000	1.4958	1.4917	1.4875	1.4833	1.4792	1.4750	1.4708	1.4667	1.4625	1.4583	1.4542	1.4500	1.4358	1.4217	1.4075	1.3933	1.3792	1.3650
6 1.3508	1.3367	1.3225	1.3083	1.2942	1.2800	1.2567	1.2333	1.2100	1.1867	1.1633	1.1400	1.1167	1.0933	1.0700	1.0467	1.0233	1.0000	0.9883	0.9767	0.9650	0.9533	0.9417	0.9300
6 0.9183	0.9067	0.8950	0.8833	0.8717	0.8600	0.8425	0.8250	0.8075	0.7900	0.7725	0.7550	0.7375	0.7200	0.7025	0.6850	0.6675	0.6500	0.6500	0.6500	0.6500	0.6500	0.6500	0.6500
6 0.6500	0.6500	0.6500	0.6500	0.6500	0.6500	0.6467	0.6433	0.6400	0.6367	0.6333	0.6300	0.6267	0.6233	0.6200	0.6167	0.6133	0.6100	0.6092	0.6083	0.6075	0.6067	0.6058	0.6050
6 0.6042	0.6033	0.6025	0.6017	0.6008	0.6000	0.5983	0.5967	0.5950	0.5933	0.5917	0.5900	0.5883	0.5867	0.5850	0.5833	0.5817	0.5800	0.5833	0.5867	0.5900	0.5933	0.5967	0.6000
6 0.6033	0.6067	0.6100	0.6133	0.6167	0.6200	0.6333	0.6467	0.6600	0.6733	0.6867	0.7000	0.7133	0.7267	0.7400	0.7533	0.7667	0.7800	0.7967	0.8133	0.8300	0.8467	0.8633	0.8800
6 0.8967	0.9133	0.9300	0.9467	0.9633	0.9800	0.9983	1.0167	1.0350	1.0533	1.0717	1.0900	1.1083	1.1267	1.1450	1.1633	1.1817	1.2000	1.2142	1.2283	1.2425	1.2567	1.2708	1.2850
6 1.2992	1.3133	1.3275	1.3417	1.3558	1.3700	1.3583	1.3467	1.3350	1.3233	1.3117	1.3000	1.2883	1.2767	1.2650	1.2533	1.2417	1.2300	1.2192	1.2083	1.1975	1.1867	1.1758	1.1650
6 1.1542	1.1433	1.1325	1.1217	1.1108	1.1000	1.0933	1.0867	1.0800	1.0733	1.0667	1.0600	1.0533	1.0467	1.0400	1.0333	1.0267	1.0200	1.0167	1.0133	1.0100	1.0067	1.0033	1.0000
6 0.9967	0.9933	0.9900	0.9867	0.9833	0.9800	0.9775	0.9750	0.9725	0.9700	0.9675	0.9650	0.9625	0.9600	0.9575	0.9550	0.9525	0.9500	0.9550	0.9600	0.9650	0.9700	0.9750	0.9800
6 0.9850	0.9900	0.9950	1.0000	1.0050	1.0100	1.0175	1.0250	1.0325	1.0400	1.0475	1.0550	1.0625	1.0700	1.0775	1.0850	1.0925	1.1000	1.1083	1.1167	1.1250	1.1333	1.1417	1.1500