[TITLE]

[JUNCTIONS]
;ID              	Elev        	Demand      	Pattern         
 1               	944         	0           	1               	;
 2               	1044        	0           	2               	;
 3               	1042        	0           	3               	;
 4               	1054        	403.9       	4               	;
 5               	1052        	0           	5               	;
 6               	1008        	852.8       	6               	;
 7               	1048        	718.1       	7               	;
 8               	1017.5      	134.6       	8               	;
 9               	1028.3      	0           	9               	;
 10              	998         	125.7       	10              	;
 11              	1012        	35.9        	11              	;
 12              	1016        	130.2       	12              	;
 13              	1040        	507.9       	13              	;
 14              	1034        	44.9        	14              	;
 15              	1035        	148.8       	15              	;
 16              	1042        	314.2       	16              	;
 17              	1040        	269.3       	17              	;
 18              	1018        	0           	18              	;
 19              	1001        	271.3       	19              	;
 20              	1030        	44.9        	20              	;
 21              	1020        	673.2       	21              	;
 22              	1030        	0           	22              	;
 23              	1025        	180.9       	23              	;
 24              	1025        	0           	24              	;
 25              	1025        	0           	25              	;
 26              	1025        	224.4       	26              	;
 27              	1025        	0           	27              	;
 28              	1025        	224.4       	28              	;
 29              	1015        	224.4       	29              	;
 30              	1035        	134.6       	30              	;
 31              	1020        	0           	31              	;
 32              	990         	987.4       	32              	;
 33              	985         	359.1       	33              	;
 34              	1010        	516.2       	34              	;
 35              	1010        	0           	35              	;
 36              	1006        	68.6        	36              	;
 37              	1012        	224.4       	37              	;
 38              	1013        	0           	38              	;
 39              	1000        	44.9        	39              	;
 40              	1040        	134.6       	40              	;
 41              	1030        	106         	41              	;
 42              	1035        	0           	42              	;
 43              	1030        	44.9        	43              	;
 44              	1033.5      	179.5       	44              	;
 45              	1030        	44.9        	45              	;
 46              	1020        	0           	46              	;
 47              	1004        	403.9       	47              	;
 48              	1003        	697.7       	48              	;
 49              	1001.3      	0           	49              	;
 50              	1036        	359.1       	50              	;
 51              	1015        	269.3       	51              	;
 52              	1020        	0           	52              	;
 53              	1015        	0           	53              	;
 54              	1000        	224.4       	54              	;
 55              	1003        	359.1       	55              	;
 56              	1022        	27.4        	56              	;
 57              	1000        	84.2        	57              	;
 58              	998         	0           	58              	;
 59              	995         	41.3        	59              	;
 60              	995         	25.3        	60              	;
 61              	1018        	200         	61              	;
 62              	1013        	56.5        	62              	;
 63              	1025        	245.3       	63              	;
 64              	1005        	0           	64              	;
 65              	1002.3      	48.6        	65              	;
 66              	1005.8      	55.1        	66              	;
 67              	1002.6      	38.9        	67              	;
 68              	1042        	0           	68              	;
 69              	1025        	0           	69              	;
 70              	1030        	0           	70              	;
 71              	1020        	0           	71              	;
 72              	1030        	0           	72              	;
 73              	1025        	0           	73              	;
 74              	1025        	0           	74              	;
 75              	1025        	0           	75              	;
 76              	1015        	0           	76              	;
 77              	1030        	0           	77              	;
 78              	1018        	0           	78              	;
 79              	1003        	0           	79              	;
 80              	1036        	0           	80              	;
 81              	1015        	0           	81              	;
 82              	1000        	0           	82              	;
 83              	1020        	0           	83              	;
 84              	1015        	0           	84              	;
 87              	1000        	0           	85              	;
 88              	1000        	0           	86              	;
 89              	1000        	0           	87              	;
 90              	1000        	0           	88              	;
 91              	1000        	0           	89              	;
 92              	1000        	0           	90              	;
 93              	1000        	0           	91              	;
 94              	1000        	0           	92              	;
 95              	1000        	0           	93              	;
 96              	1000        	0           	94              	;
 97              	1000        	0           	95              	;
 98              	1000        	0           	96              	;
 99              	1000        	0           	97              	;
 100             	1000        	0           	98              	;
 101             	1000        	0           	99              	;
 102             	1000        	0           	100             	;
 103             	1000        	0           	101             	;
 104             	1000        	0           	102             	;
 105             	1000        	0           	103             	;
 106             	1000        	0           	104             	;
 107             	1000        	0           	105             	;
 108             	1000        	0           	106             	;
 109             	1000        	0           	107             	;
 110             	1000        	0           	108             	;
 111             	1000        	0           	109             	;
 112             	1000        	0           	110             	;
 113             	1000        	0           	111             	;
 114             	1000        	0           	112             	;
 115             	1000        	0           	113             	;
 116             	1000        	0           	114             	;
 117             	1000        	0           	115             	;
 118             	1000        	0           	116             	;
 119             	1000        	0           	117             	;
 120             	1000        	0           	118             	;
 121             	1000        	0           	119             	;
 122             	1000        	0           	120             	;
 123             	1000        	0           	121             	;
 124             	1000        	0           	122             	;
 125             	1000        	0           	123             	;
 126             	1000        	0           	124             	;
 127             	1000        	0           	125             	;
 128             	1000        	0           	126             	;

[RESERVOIRS]
;ID              	Head        	Pattern         
 85              	1005.3      	                	;

[TANKS]
;ID              	Elevation   	InitLevel   	MinLevel    	MaxLevel    	Diameter    	MinVol      	VolCurve

[PIPES]
;ID              	Node1           	Node2           	Length      	Diameter    	Roughness   	MinorLoss   	Status
 1               	85              	1               	375         	72          	100         	0           	Open  	;
 2               	2               	127             	1500        	72          	115         	0           	Open  	;
 3               	122             	5               	300         	24          	95          	0           	Open  	;
 4               	4               	120             	1050        	24          	105         	0           	Open  	;
 5               	128             	4               	1050        	18          	85          	0           	Open  	;
 6               	5               	6               	5400        	18          	100         	0           	Open  	;
 7               	7               	126             	4515        	18          	100         	0           	Open  	;
 8               	7               	8               	2928        	12          	85          	0           	Open  	;
 9               	123             	9               	4800        	18          	90          	0           	Open  	;
 10              	11              	125             	9336        	12          	115         	0           	Open  	;
 11              	11              	12              	3460.5      	12          	110         	0           	Open  	;
 12              	9               	124             	2700        	12          	105         	0           	Open  	;
 13              	9               	10              	3600        	18          	95          	0           	Open  	;
 14              	121             	90              	15000       	60          	105         	0           	Open  	;
 15              	13              	91              	3200        	48          	90          	0           	Open  	;
 16              	96              	15              	7800        	30          	85          	0           	Open  	;
 17              	95              	16              	1050        	30          	115         	0           	Open  	;
 18              	27              	68              	1500        	18          	85          	0           	Open  	;
 19              	14              	69              	1650        	18          	90          	0           	Open  	;
 20              	17              	110             	1443.5      	24          	100         	0           	Open  	;
 21              	16              	20              	2600        	24          	95          	0           	Open  	;
 22              	111             	17              	2266.5      	18          	85          	0           	Open  	;
 23              	119             	18              	1407        	18          	85          	0           	Open  	;
 24              	18              	19              	2750        	12          	110         	0           	Open  	;
 25              	70              	24              	2500        	18          	105         	0           	Open  	;
 26              	113             	24              	1950        	18          	85          	0           	Open  	;
 27              	25              	71              	1800        	18          	105         	0           	Open  	;
 28              	20              	21              	1750        	18          	100         	0           	Open  	;
 29              	25              	26              	4400        	8           	95          	0           	Open  	;
 30              	26              	72              	5089.5      	8           	95          	0           	Open  	;
 31              	118             	22              	5400        	18          	90          	0           	Open  	;
 32              	22              	23              	6000        	12          	80          	0           	Open  	;
 34              	28              	73              	1050        	18          	110         	0           	Open  	;
 35              	28              	29              	1900        	12          	90          	0           	Open  	;
 36              	29              	74              	1786        	12          	80          	0           	Open  	;
 37              	27              	28              	3350        	18          	115         	0           	Open  	;
 38              	93              	30              	1800        	24          	80          	0           	Open  	;
 39              	30              	98              	1800        	18          	95          	0           	Open  	;
 40              	33              	34              	1856        	12          	100         	0           	Open  	;
 41              	108             	37              	2000        	12          	100         	0           	Open  	;
 42              	31              	114             	1750        	12          	100         	0           	Open  	;
 43              	37              	35              	2045        	12          	100         	0           	Open  	;
 44              	97              	31              	2085        	18          	115         	0           	Open  	;
 45              	31              	75              	1950        	12          	105         	0           	Open  	;
 46              	31              	109             	2756        	12          	95          	0           	Open  	;
 47              	32              	76              	3000        	12          	115         	0           	Open  	;
 48              	106             	32              	6000        	18          	100         	0           	Open  	;
 49              	104             	39              	4950        	24          	100         	0           	Open  	;
 50              	100             	38              	5640        	24          	115         	0           	Open  	;
 51              	99              	40              	7500        	24          	100         	0           	Open  	;
 52              	40              	41              	3750        	8           	100         	0           	Open  	;
 53              	103             	42              	3600        	18          	100         	0           	Open  	;
 54              	42              	77              	4950        	12          	90          	0           	Open  	;
 55              	43              	115             	1800        	12          	90          	0           	Open  	;
 56              	44              	43              	2550        	12          	90          	0           	Open  	;
 57              	43              	78              	4000        	12          	100         	0           	Open  	;
 58              	46              	43              	2737.5      	8           	100         	0           	Open  	;
 59              	47              	44              	3664.5      	12          	110         	0           	Open  	;
 60              	47              	116             	3000        	12          	100         	0           	Open  	;
 61              	92              	47              	2865.5      	24          	110         	0           	Open  	;
 62              	46              	79              	1800        	18          	110         	0           	Open  	;
 63              	47              	80              	3900        	12          	105         	0           	Open  	;
 64              	87              	48              	1875        	12          	85          	0           	Open  	;
 65              	50              	49              	2000        	12          	85          	0           	Open  	;
 66              	94              	50              	2500        	24          	100         	0           	Open  	;
 67              	48              	81              	2310        	12          	100         	0           	Open  	;
 68              	49              	82              	2405        	8           	85          	0           	Open  	;
 69              	89              	55              	1998        	18          	85          	0           	Open  	;
 70              	54              	117             	2863.5      	12          	95          	0           	Open  	;
 71              	55              	54              	2550        	18          	105         	0           	Open  	;
 72              	53              	52              	2450        	8           	100         	0           	Open  	;
 73              	51              	52              	2000        	12          	95          	0           	Open  	;
 74              	52              	56              	4000        	6           	100         	0           	Open  	;
 76              	38              	105             	4230        	12          	105         	0           	Open  	;
 77              	39              	58              	2456        	8           	105         	0           	Open  	;
 78              	58              	59              	1500        	6           	100         	0           	Open  	;
 79              	58              	60              	1500        	6           	100         	0           	Open  	;
 80              	88              	83              	2300        	12          	100         	0           	Open  	;
 81              	48              	61              	2580        	8           	100         	0           	Open  	;
 82              	61              	45              	1560        	8           	100         	0           	Open  	;
 83              	45              	84              	2750        	8           	95          	0           	Open  	;
 84              	51              	62              	4800        	6           	100         	0           	Open  	;
 85              	107             	35              	2578        	12          	100         	0           	Open  	;
 86              	35              	39              	2583        	12          	100         	0           	Open  	;
 87              	32              	36              	2680        	8           	100         	0           	Open  	;
 88              	101             	63              	3270        	18          	100         	0           	Open  	;
 89              	63              	102             	2630        	12          	100         	0           	Open  	;
 90              	64              	65              	1150        	8           	100         	0           	Open  	;
 91              	64              	66              	998         	8           	100         	0           	Open  	;
 92              	57              	67              	1985        	8           	100         	0           	Open  	;

[PUMPS]
;ID              	Node1           	Node2           	Parameters
 93              	1               	2               	HEAD c1	;
 94              	1               	2               	HEAD c1	;
 95              	1               	2               	HEAD c2	;
 96              	1               	2               	HEAD c2	;
 97              	1               	2               	HEAD c2	;
 98              	1               	2               	HEAD c3	;
 99              	1               	2               	HEAD c3	;

[VALVES]
;ID              	Node1           	Node2           	Diameter    	Type	Setting     	MinorLoss   
 100             	68              	16              	18          	TCV 	0           	0           	;
 101             	69              	27              	18          	TCV 	0           	0           	;
 102             	70              	20              	18          	TCV 	0           	0           	;
 103             	71              	21              	18          	TCV 	0           	0           	;
 104             	72              	22              	6           	TCV 	0           	0           	;
 105             	73              	24              	18          	TCV 	0           	0           	;
 106             	74              	25              	12          	TCV 	0           	0           	;
 107             	75              	28              	12          	TCV 	0           	0           	;
 108             	76              	29              	12          	TCV 	0           	0           	;
 109             	77              	45              	12          	TCV 	0           	0           	;
 110             	78              	61              	12          	TCV 	0           	0           	;
 111             	79              	48              	18          	TCV 	0           	0           	;
 112             	80              	50              	12          	TCV 	0           	0           	;
 113             	81              	53              	12          	TCV 	0           	0           	;
 114             	82              	54              	8           	TCV 	0           	0           	;
 115             	83              	52              	12          	TCV 	0           	0           	;
 116             	84              	51              	8           	TCV 	0           	0           	;
 75              	87              	49              	12          	TCV 	0           	0           	;
 117             	61              	88              	12          	TCV 	0           	0           	;
 118             	50              	89              	18          	TCV 	0           	0           	;
 119             	13              	90              	60          	TCV 	0           	0           	;
 120             	53              	117             	12          	TCV 	0           	0           	;
 121             	46              	116             	12          	TCV 	0           	0           	;
 122             	42              	115             	12          	TCV 	0           	0           	;
 123             	102             	64              	12          	TCV 	0           	0           	;
 124             	105             	57              	12          	TCV 	0           	0           	;
 125             	114             	37              	12          	TCV 	0           	0           	;
 126             	107             	34              	12          	TCV 	0           	0           	;
 127             	33              	108             	12          	TCV 	0           	0           	;
 128             	33              	98              	18          	TCV 	0           	0           	;
 129             	106             	39              	12          	TCV 	0           	0           	;
 130             	21              	118             	18          	TCV 	0           	0           	;
 131             	111             	18              	18          	TCV 	0           	0           	;
 132             	119             	20              	18          	TCV 	0           	0           	;
 133             	109             	32              	12          	TCV 	0           	0           	;
 134             	30              	97              	18          	TCV 	0           	0           	;
 135             	91              	14              	48          	TCV 	0           	0           	;
 136             	92              	14              	24          	TCV 	0           	0           	;
 137             	93              	14              	24          	TCV 	0           	0           	;
 138             	96              	14              	24          	TCV 	0           	0           	;
 139             	15              	99              	24          	TCV 	0           	0           	;
 140             	101             	15              	18          	TCV 	0           	0           	;
 141             	100             	15              	24          	TCV 	0           	0           	;
 142             	38              	104             	24          	TCV 	0           	0           	;
 143             	16              	110             	24          	TCV 	0           	0           	;
 144             	13              	95              	24          	TCV 	0           	0           	;
 145             	94              	13              	24          	TCV 	0           	0           	;
 146             	112             	24              	24          	TCV 	0           	0           	;
 147             	103             	40              	18          	TCV 	0           	0           	;
 148             	3               	121             	72          	TCV 	0           	0           	;
 149             	3               	120             	24          	TCV 	0           	0           	;
 150             	122             	2               	24          	TCV 	0           	0           	;
 151             	7               	125             	12          	TCV 	0           	0           	;
 152             	4               	123             	18          	TCV 	0           	0           	;
 153             	11              	124             	12          	TCV 	0           	0           	;
 154             	4               	126             	18          	TCV 	0           	0           	;
 155             	3               	127             	72          	TCV 	0           	0           	;
 156             	128             	5               	18          	TCV 	0           	0           	;
 157             	113             	25              	18          	TCV 	0           	0           	;

[TAGS]

[DEMANDS]
;Junction        	Demand      	Pattern         	Category

[STATUS]
;ID              	Status/Setting
 96              	Closed
 97              	Closed
 98              	Closed
 99              	Closed

[PATTERNS]
;ID              	Multipliers
;time pattern (obtained from doosun)
1 0.6500	0.6500	0.6500	0.6500	0.6500	0.6500	0.6467	0.6433	0.6400	0.6367	0.6333	0.6300	0.6267	0.6233	0.6200	0.6167	0.6133	0.6100	0.6092	0.6083	0.6075	0.6067	0.6058	0.6050
1 0.6042	0.6033	0.6025	0.6017	0.6008	0.6000	0.5983	0.5967	0.5950	0.5933	0.5917	0.5900	0.5883	0.5867	0.5850	0.5833	0.5817	0.5800	0.5833	0.5867	0.5900	0.5933	0.5967	0.6000
1 0.6033	0.6067	0.6100	0.6133	0.6167	0.6200	0.6333	0.6467	0.6600	0.6733	0.6867	0.7000	0.7133	0.7267	0.7400	0.7533	0.7667	0.7800	0.7967	0.8133	0.8300	0.8467	0.8633	0.8800
1 0.8967	0.9133	0.9300	0.9467	0.9633	0.9800	0.9983	1.0167	1.0350	1.0533	1.0717	1.0900	1.1083	1.1267	1.1450	1.1633	1.1817	1.2000	1.2142	1.2283	1.2425	1.2567	1.2708	1.2850
1 1.2992	1.3133	1.3275	1.3417	1.3558	1.3700	1.3583	1.3467	1.3350	1.3233	1.3117	1.3000	1.2883	1.2767	1.2650	1.2533	1.2417	1.2300	1.2192	1.2083	1.1975	1.1867	1.1758	1.1650
1 1.1542	1.1433	1.1325	1.1217	1.1108	1.1000	1.0933	1.0867	1.0800	1.0733	1.0667	1.0600	1.0533	1.0467	1.0400	1.0333	1.0267	1.0200	1.0167	1.0133	1.0100	1.0067	1.0033	1.0000
1 0.9967	0.9933	0.9900	0.9867	0.9833	0.9800	0.9775	0.9750	0.9725	0.9700	0.9675	0.9650	0.9625	0.9600	0.9575	0.9550	0.9525	0.9500	0.9550	0.9600	0.9650	0.9700	0.9750	0.9800
1 0.9850	0.9900	0.9950	1.0000	1.0050	1.0100	1.0175	1.0250	1.0325	1.0400	1.0475	1.0550	1.0625	1.0700	1.0775	1.0850	1.0925	1.1000	1.1083	1.1167	1.1250	1.1333	1.1417	1.1500
1 1.1583	1.1667	1.1750	1.1833	1.1917	1.2000	1.2083	1.2167	1.2250	1.2333	1.2417	1.2500	1.2583	1.2667	1.2750	1.2833	1.2917	1.3000	1.3167	1.3333	1.3500	1.3667	1.3833	1.4000
1 1.4167	1.4333	1.4500	1.4667	1.4833	1.5000	1.4958	1.4917	1.4875	1.4833	1.4792	1.4750	1.4708	1.4667	1.4625	1.4583	1.4542	1.4500	1.4358	1.4217	1.4075	1.3933	1.3792	1.3650
1 1.3508	1.3367	1.3225	1.3083	1.2942	1.2800	1.2567	1.2333	1.2100	1.1867	1.1633	1.1400	1.1167	1.0933	1.0700	1.0467	1.0233	1.0000	0.9883	0.9767	0.9650	0.9533	0.9417	0.9300
1 0.9183	0.9067	0.8950	0.8833	0.8717	0.8600	0.8425	0.8250	0.8075	0.7900	0.7725	0.7550	0.7375	0.7200	0.7025	0.6850	0.6675	0.6500	0.6500	0.6500	0.6500	0.6500	0.6500	0.6500
;
2 0.6500	0.6500	0.6500	0.6500	0.6500	0.6500	0.6467	0.6433	0.6400	0.6367	0.6333	0.6300	0.6267	0.6233	0.6200	0.6167	0.6133	0.6100	0.6092	0.6083	0.6075	0.6067	0.6058	0.6050
2 0.6042	0.6033	0.6025	0.6017	0.6008	0.6000	0.5983	0.5967	0.5950	0.5933	0.5917	0.5900	0.5883	0.5867	0.5850	0.5833	0.5817	0.5800	0.5833	0.5867	0.5900	0.5933	0.5967	0.6000
2 0.6033	0.6067	0.6100	0.6133	0.6167	0.6200	0.6333	0.6467	0.6600	0.6733	0.6867	0.7000	0.7133	0.7267	0.7400	0.7533	0.7667	0.7800	0.7967	0.8133	0.8300	0.8467	0.8633	0.8800
2 0.8967	0.9133	0.9300	0.9467	0.9633	0.9800	0.9983	1.0167	1.0350	1.0533	1.0717	1.0900	1.1083	1.1267	1.1450	1.1633	1.1817	1.2000	1.2142	1.2283	1.2425	1.2567	1.2708	1.2850
2 1.2992	1.3133	1.3275	1.3417	1.3558	1.3700	1.3583	1.3467	1.3350	1.3233	1.3117	1.3000	1.2883	1.2767	1.2650	1.2533	1.2417	1.2300	1.2192	1.2083	1.1975	1.1867	1.1758	1.1650
2 1.1542	1.1433	1.1325	1.1217	1.1108	1.1000	1.0933	1.0867	1.0800	1.0733	1.0667	1.0600	1.0533	1.0467	1.0400	1.0333	1.0267	1.0200	1.0167	1.0133	1.0100	1.0067	1.0033	1.0000
2 0.9967	0.9933	0.9900	0.9867	0.9833	0.9800	0.9775	0.9750	0.9725	0.9700	0.9675	0.9650	0.9625	0.9600	0.9575	0.9550	0.9525	0.9500	0.9550	0.9600	0.9650	0.9700	0.9750	0.9800
2 0.9850	0.9900	0.9950	1.0000	1.0050	1.0100	1.0175	1.0250	1.0325	1.0400	1.0475	1.0550	1.0625	1.0700	1.0775	1.0850	1.0925	1.1000	1.1083	1.1167	1.1250	1.1333	1.1417	1.1500
2 1.1583	1.1667	1.1750	1.1833	1.1917	1.2000	1.2083	1.2167	1.2250	1.2333	1.2417	1.2500	1.2583	1.2667	1.2750	1.2833	1.2917	1.3000	1.3167	1.3333	1.3500	1.3667	1.3833	1.4000
2 1.4167	1.4333	1.4500	1.4667	1.4833	1.5000	1.4958	1.4917	1.4875	1.4833	1.4792	1.4750	1.4708	1.4667	1.4625	1.4583	1.4542	1.4500	1.4358	1.4217	1.4075	1.3933	1.3792	1.3650
2 1.3508	1.3367	1.3225	1.3083	1.2942	1.2800	1.2567	1.2333	1.2100	1.1867	1.1633	1.1400	1.1167	1.0933	1.0700	1.0467	1.0233	1.0000	0.9883	0.9767	0.9650	0.9533	0.9417	0.9300
2 0.9183	0.9067	0.8950	0.8833	0.8717	0.8600	0.8425	0.8250	0.8075	0.7900	0.7725	0.7550	0.7375	0.7200	0.7025	0.6850	0.6675	0.6500	0.6500	0.6500	0.6500	0.6500	0.6500	0.6500
;
3 0.6500	0.6500	0.6500	0.6500	0.6500	0.6500	0.6467	0.6433	0.6400	0.6367	0.6333	0.6300	0.6267	0.6233	0.6200	0.6167	0.6133	0.6100	0.6092	0.6083	0.6075	0.6067	0.6058	0.6050
3 0.6042	0.6033	0.6025	0.6017	0.6008	0.6000	0.5983	0.5967	0.5950	0.5933	0.5917	0.5900	0.5883	0.5867	0.5850	0.5833	0.5817	0.5800	0.5833	0.5867	0.5900	0.5933	0.5967	0.6000
3 0.6033	0.6067	0.6100	0.6133	0.6167	0.6200	0.6333	0.6467	0.6600	0.6733	0.6867	0.7000	0.7133	0.7267	0.7400	0.7533	0.7667	0.7800	0.7967	0.8133	0.8300	0.8467	0.8633	0.8800
3 0.8967	0.9133	0.9300	0.9467	0.9633	0.9800	0.9983	1.0167	1.0350	1.0533	1.0717	1.0900	1.1083	1.1267	1.1450	1.1633	1.1817	1.2000	1.2142	1.2283	1.2425	1.2567	1.2708	1.2850