[TITLE]
Scenario: ??                                
Date: 2020/6/30 21:05:50                                

[JUNCTIONS]
;ID              	Elev        	Demand      	Pattern         
 ST00097203      	2.96        	0.504964    	DMA1_pat            ;
 ST00123104      	3.93        	0.230302    	DMA1_pat            ;
 QT00009090      	2.671       	0.800172    	DMA1_pat            ;
 TD00009902      	4.83        	0.848045    	DMA1_pat            ;
 TN003244        	2.48        	0.75561     	DMA1_pat            ;
 ST00040842      	7.57        	0.305128    	DMA1_pat            ;
 ST00106985      	3.31        	0.75561     	DMA1_pat            ;
 TD00066841      	2.58        	0.75561     	DMA1_pat            ;
 ST00110157      	2.66        	0.75561     	DMA1_pat            ;
 ST00067036      	3.51        	0.75561     	DMA1_pat            ;
 ST00105194      	3.1         	0.75561     	DMA1_pat            ;
 J-6046          	3.25        	0.512302    	DMA1_pat            ;
 ST00129087      	3.31        	0.710728    	DMA1_pat            ;
 ST00173478      	1.85        	0.506528    	DMA1_pat            ;
 ST00170409      	4.49        	0.321953    	DMA1_pat            ;
 ST00049642      	4.82        	0.307562    	DMA1_pat            ;
 TD00143552      	3.227       	0.3349      	DMA1_pat            ;
 ST00150285      	2.92        	0.329366    	DMA1_pat            ;
 ST00077699      	3.62        	0.51409     	DMA1_pat            ;
 TD00171337      	2.969       	0.248964    	DMA1_pat            ;
 ST00176717      	3.82        	0.511984    	DMA1_pat            ;
 ST00110671      	4.65        	0.75561     	DMA1_pat            ;
 ST00078330      	4.34        	0.509935    	DMA1_pat            ;
 ST00174090      	3.95        	0.502018    	DMA1_pat            ;
 ST00015547      	5.71        	0.809061    	DMA1_pat            ;
 ST00069837      	5.13        	0.177989    	DMA1_pat            ;
 ST00165898      	1.96        	0.329359    	DMA1_pat            ;
 ST00143116      	6.48        	0.43847     	DMA1_pat            ;
 ST00085565      	2.16        	1.13513     	DMA1_pat            ;
 ST00095636      	2.41        	0.75561     	DMA1_pat            ;
 J-3014          	4           	0.498345    	DMA1_pat            ;
 QT00055526      	4.79        	0.34059     	DMA1_pat            ;
 ST00101434      	3.4         	0.75561     	DMA1_pat            ;
 ST00141677      	3.27        	0.511983    	DMA1_pat            ;
 ST00170836      	5.72        	0.327959    	DMA1_pat            ;
 QT00009091      	4.462       	1.132882    	DMA1_pat            ;
 ST00188876      	3.7         	0.511982    	DMA1_pat            ;
 QT00005278      	4.414       	0.331351    	DMA1_pat            ;
 ST00123556      	3.87        	0.511964    	DMA1_pat            ;
 ST00148864      	3.44        	0.329358    	DMA1_pat            ;
 ST00143836      	4.18        	0.75561     	DMA1_pat            ;
 CLD0043         	8.8788      	0.75561     	DMA1_pat            ;
 FM060954        	3.06        	0.505988    	DMA1_pat            ;
 ST00143221      	3.57        	0.439201    	DMA1_pat            ;
 ST00124951      	2.9         	0.50653     	DMA1_pat            ;
 BJD00022614     	3.277       	0.335012    	DMA1_pat            ;
 ST00108950      	3.05        	0.75561     	DMA1_pat            ;
 ST00099679      	1.68        	0.75561     	DMA1_pat            ;
 TD00117827      	4.056       	0.511982    	DMA1_pat            ;
 ST00110449      	3.09        	0.75561     	DMA1_pat            ;
 ST00181021      	3.81        	0.502194    	DMA1_pat            ;
 ST00103839      	4.06        	0.75561     	DMA1_pat            ;
 FM047881        	3.14        	0.75561     	DMA1_pat            ;
 ST00087279      	2.76        	0.305307    	DMA1_pat            ;
 ST00077620      	3.49        	0.51409     	DMA1_pat            ;
 ST00142718      	3.25        	0.75561     	DMA1_pat            ;
 ST00105206      	2.75        	0.75561     	DMA1_pat            ;
 QT00008974      	4.134       	0.334427    	DMA1_pat            ;
 ST00011301      	3.56        	0.305872    	DMA1_pat            ;
 TD00185535      	2.764       	0.75561     	DMA1_pat            ;
 ST00170398      	4.02        	0.311592    	DMA1_pat            ;
 ST00103922      	2.78        	0.75561     	DMA1_pat            ;
 CLD0027         	4.36        	0.23577     	DMA1_pat            ;
 ST00112942      	3.48        	0.75561     	DMA1_pat            ;
 J-4876          	3           	0.330384    	DMA1_pat            ;
 ST00131693      	3.24        	0.75561     	DMA1_pat            ;
 J-7476          	3.33        	0.41861     	DMA1_pat            ;
 ST00032584      	3.76        	1.030215    	DMA1_pat            ;
 ST00163790      	2.51        	0.206516    	DMA1_pat            ;
 TD00132207      	3.469       	0.212022    	DMA1_pat            ;
 ST00165543      	2.41        	0.329365    	DMA1_pat            ;
 TD00009884      	2.95        	0.628151    	DMA1_pat            ;
 ST00170843      	4.64        	0.330525    	DMA1_pat            ;
 TD00022390      	2.99        	0.509934    	DMA1_pat            ;
 ST00015541      	6.03        	0.329366    	DMA1_pat            ;
 ST00141932      	3.22        	0.75561     	DMA1_pat            ;
 ST00049920      	1.91        	0.512009    	DMA1_pat            ;
 ST00144625      	3.4         	0.75561     	DMA1_pat            ;
 ST00123618      	3.62        	0.511983    	DMA1_pat            ;
 ST00162627      	3.79        	0.335012    	DMA1_pat            ;
 QT00055614      	4.27        	0.329572    	DMA1_pat            ;
 ST00156280      	2.55        	0.413096    	DMA1_pat            ;
 QT00105202      	4.12        	0.75561     	DMA1_pat            ;
 ST00124744      	2.35        	0.50653     	DMA1_pat            ;
 ST00067030      	3.95        	0.75561     	DMA1_pat            ;
 ST00108533      	3.28        	0.75561     	DMA1_pat            ;
 TD00159706      	2.792       	0.329362    	DMA1_pat            ;
 ST00174471      	2.98        	0.514089    	DMA1_pat            ;
 ST00112932      	2.48        	0.75561     	DMA1_pat            ;
 QT00010573      	4.26        	0.809013    	DMA1_pat            ;
 ST00155734      	3.95        	0.206574    	DMA1_pat            ;
 ST00117706      	2.73        	0.60073     	DMA1_pat            ;
 QT00123702      	3.64        	0.206564    	DMA1_pat            ;
 ST00171880      	4.01        	0.192013    	DMA1_pat            ;
 ST00111502      	3.2         	0.75561     	DMA1_pat            ;
 ST00109014      	2.88        	0.75561     	DMA1_pat            ;
 ST00185871      	3.35        	0.75561     	DMA1_pat            ;
 ST00150431      	2.44        	0.335012    	DMA1_pat            ;
 QT00184458      	2.51        	0.808842    	DMA1_pat            ;
 QT00124083      	4.509       	0.335013    	DMA1_pat            ;
 ST00181014      	3.43        	0.501986    	DMA1_pat            ;
 TD00117648      	2.533       	0.511982    	DMA1_pat            ;
 ST00111230      	3.7         	0.75561     	DMA1_pat            ;
 ST00167894      	1.94        	0.842534    	DMA1_pat            ;
 ST00152992      	3.2         	0.32796     	DMA1_pat            ;
 ST00182470      	2.95        	0.75561     	DMA1_pat            ;
 ST00185810      	3.62        	0.75561     	DMA1_pat            ;
 FM056239        	5.56        	0.327961    	DMA1_pat            ;
 ST00166310      	2.61        	0.32937     	DMA1_pat            ;
 ST00139606      	3.61        	0.75561     	DMA1_pat            ;
 ST00127672      	4.62        	0.75561     	DMA1_pat            ;
 TD00131435      	3.269       	0.329371    	DMA1_pat            ;
 ST00075532      	4.68        	0.340051    	DMA1_pat            ;
 ST00077631      	3.49        	0.514089    	DMA1_pat            ;
 ST00172007      	4.15        	0.75561     	DMA1_pat            ;
 ST00084481      	2.67        	0.846671    	DMA1_pat            ;
 ST00144624      	4.51        	0.75561     	DMA1_pat            ;
 FM019101        	7.46        	0.506497    	DMA1_pat            ;
 ST00095683      	3.44        	0.75561     	DMA1_pat            ;
 QT00179135      	4.49        	0.511982    	DMA1_pat            ;
 ST00095628      	2.29        	0.506532    	DMA1_pat            ;
 ST00010626      	4.76        	0.23577     	DMA1_pat            ;
 ST00181635      	2.48        	0.506531    	DMA1_pat            ;
 ST00181462      	3.52        	0.504959    	DMA1_pat            ;
 QT00086296      	3.25        	0.511982    	DMA1_pat            ;
 FM061083        	3.43        	0.75561     	DMA1_pat            ;
 ST00028654      	6.08        	0.609896    	DMA1_pat            ;
 ST00162729      	2.87        	0.409602    	DMA1_pat            ;
 ST00112898      	4.42        	0.75561     	DMA1_pat            ;
 ST00015657      	1.96        	0.306964    	DMA1_pat            ;
 TD00016031      	5.23        	0.31526     	DMA1_pat            ;
 ST00126779      	3.01        	0.75561     	DMA1_pat            ;
 QT00082830      	1.92        	0.60757     	DMA1_pat            ;
 ST00181763      	2.52        	0.506389    	DMA1_pat            ;
 ST00014445      	4.77        	0.66437     	DMA1_pat            ;
 ST00178623      	3.3         	0.51409     	DMA1_pat            ;
 ST00152512      	3.98        	0.328914    	DMA1_pat            ;
 J-7227          	4.4         	0.330767    	DMA1_pat            ;
 ST00062587      	2.2         	0.41861     	DMA1_pat            ;
 ST00157873      	3.76        	0.809038    	DMA1_pat            ;
 ST00076342      	2.9         	0.75561     	DMA1_pat            ;
 ST00174107      	2.51        	0.236371    	DMA1_pat            ;
 FM056007        	5.04        	0.192011    	DMA1_pat            ;
 ST00052802      	2.35        	0.75561     	DMA1_pat            ;
 J-8109          	2.8         	0.808889    	DMA1_pat            ;
 ST00181623      	4.25        	0.600729    	DMA1_pat            ;
 ST00146326      	3.78        	1.117653    	DMA1_pat            ;
 ST00115166      	3.65        	0.75561     	DMA1_pat            ;
 ST00010637      	5.8         	0.511982    	DMA1_pat            ;
 TD00100159      	3.575       	0.608134    	DMA1_pat            ;
 J-6989          	6.4         	0.177792    	DMA1_pat            ;
 ST00122590      	5           	0.327965    	DMA1_pat            ;
 ST00107693      	3.61        	0.75561     	DMA1_pat            ;
 ST00188489      	2.64        	0.462223    	DMA1_pat            ;
 ST00169528      	2.73        	0.328189    	DMA1_pat            ;
 FM061052        	3.86        	0.75561     	DMA1_pat            ;
 ST00129504      	3.69        	0.32525     	DMA1_pat            ;
 QT00100113      	3.14        	0.606669    	DMA1_pat            ;
 ST00170389      	4.45        	0.329678    	DMA1_pat            ;
 ST00032167      	5.03        	0.324034    	DMA1_pat            ;
 ST00128504      	1.37        	0.511982    	DMA1_pat            ;
 ST00110248      	2.95        	0.75561     	DMA1_pat            ;
 QT00004340      	5.135       	0.336514    	DMA1_pat            ;
 ST00111515      	2.66        	0.75561     	DMA1_pat            ;
 QT00126445      	1.4         	0.329376    	DMA1_pat            ;
 QT00164894      	3.64        	0.75561     	DMA1_pat            ;
 ST00095685      	3.07        	0.75561     	DMA1_pat            ;
 ST00114622      	3.11        	0.75561     	DMA1_pat            ;
 QT00094767      	3.06        	0.511982    	DMA1_pat            ;
 TD00168514      	4.28        	0.192007    	DMA1_pat            ;
 ST00177125      	3.24        	0.51409     	DMA1_pat            ;
 ST00158031      	3.42        	0.329373    	DMA1_pat            ;
 ST00109023      	2.44        	0.75561     	DMA1_pat            ;
 ST00121740      	3.02        	0.733385    	DMA1_pat            ;
 ST00153366      	2.7         	0.40216     	DMA1_pat            ;
 ST00095634      	2.81        	0.75561     	DMA1_pat            ;
 ST00117374      	2.88        	0.75561     	DMA1_pat            ;
 QT00055715      	4.11        	0.335389    	DMA1_pat            ;
 TD00114297      	3.323       	0.610942    	DMA1_pat            ;
 ST00181010      	3.6         	0.502193    	DMA1_pat            ;
 ST00155733      	2.18        	0.206962    	DMA1_pat            ;
 ST00118799      	2.66        	0.506388    	DMA1_pat            ;
 ST00146864      	5.11        	0.325251    	DMA1_pat            ;
 ST00147775      	4.06        	0.321805    	DMA1_pat            ;
 J-7249          	3.92        	0.842658    	DMA1_pat            ;
 ST00110247      	3.02        	0.75561     	DMA1_pat            ;
 ST00101142      	3.42        	0.75561     	DMA1_pat            ;
 ST00162642      	3.53        	0.315745    	DMA1_pat            ;
 ST00064439      	5.85        	0.32938     	DMA1_pat            ;
 ST00141983      	3.05        	0.75561     	DMA1_pat            ;
 QT00182591      	2.4         	0.236404    	DMA1_pat            ;
 ST00114656      	3.27        	0.75561     	DMA1_pat            ;
 ST00176988      	3.83        	0.75561     	DMA1_pat            ;
 ST00146806      	5.65        	0.329496    	DMA1_pat            ;
 ST00103087      	3           	0.75561     	DMA1_pat            ;
 ST00170870      	7.43        	0.229967    	DMA1_pat            ;
 ST00150376      	3.13        	0.328924    	DMA1_pat            ;
 QT00119867      	4.56        	0.75561     	DMA1_pat            ;
 ST00145561      	4.26        	0.381432    	DMA1_pat            ;
 ST00174475      	2.5         	0.51409     	DMA1_pat            ;
 ST00076830      	3.32        	0.509934    	DMA1_pat            ;
 ST00112917      	3.16        	0.75561     	DMA1_pat            ;
 ST00108951      	2.87        	0.75561     	DMA1_pat            ;
 QT00004441      	3.799       	0.274556    	DMA1_pat            ;
 ST00154254      	3.91        	0.327976    	DMA1_pat            ;
 ST00138303      	2.66        	0.327934    	DMA1_pat            ;
 ST00181465      	3.97        	0.504959    	DMA1_pat            ;
 ST00069285      	3.97        	0.75561     	DMA1_pat            ;
 ST00084396      	2.37        	0.846672    	DMA1_pat            ;
 ST00143010      	4.25        	0.511982    	DMA1_pat            ;
 ST00162558      	4.06        	0.615397    	DMA1_pat            ;
 ST00110266      	4.92        	0.75561     	DMA1_pat            ;
 ST00140595      	3.6         	0.511982    	DMA1_pat            ;
 ST00182467      	3.34        	0.75561     	DMA1_pat            ;
 ST00150989      	5.27        	0.514089    	DMA1_pat            ;
 ST00135392      	3.63        	0.75561     	DMA1_pat            ;
 ST00105806      	2.69        	0.75561     	DMA1_pat            ;
 QT00101543      	7.3         	0.511981    	DMA1_pat            ;
 J-7041          	4.55        	0.848       	DMA1_pat            ;
 ST00049924      	2.32        	0.509812    	DMA1_pat            ;
 ST00078306      	3.88        	0.509935    	DMA1_pat            ;
 ST00101548      	3.68        	0.75561     	DMA1_pat            ;
 QT00075154      	4.01        	0.75561     	DMA1_pat            ;
 TD00010580      	4.91        	0.23577     	DMA1_pat            ;
 ST00162636      	4.08        	0.335036    	DMA1_pat            ;
 ST00184125      	2.81        	0.23577     	DMA1_pat            ;
 ST00152005      	2.76        	0.809077    	DMA1_pat            ;
 ST00166377      	3.16        	0.329383    	DMA1_pat            ;
 ST00188407      	2.37        	0.60757     	DMA1_pat            ;
 ST00163267      	2.94        	0.335035    	DMA1_pat            ;
 ST00187798      	4.71        	0.330063    	DMA1_pat            ;
 TD00188589      	3.529       	0.329383    	DMA1_pat            ;
 ST00135511      	4.43        	0.75561     	DMA1_pat            ;
 ST00101649      	3.82        	0.75561     	DMA1_pat            ;
 TD00010609      	6.02        	0.41861     	DMA1_pat            ;
 ST00156363      	2.5         	0.506529    	DMA1_pat            ;
 J-2375          	4.5         	0.84801     	DMA1_pat            ;
 ST00051353      	4.16        	0.329385    	DMA1_pat            ;
 QT00086350      	3.6         	0.511981    	DMA1_pat            ;
 QT00086238      	3.88        	0.511981    	DMA1_pat            ;
 QT00146513      	2.94        	0.928934    	DMA1_pat            ;
 ST00111484      	3.18        	0.75561     	DMA1_pat            ;
 ST00123694      	3.25        	0.511981    	DMA1_pat            ;
 ST00111653      	3.37        	0.75561     	DMA1_pat            ;
 ST00139580      	3.51        	0.75561     	DMA1_pat            ;
 TD00008074      	5.78        	0.508901    	DMA1_pat            ;
 ST00162619      	2.92        	0.335034    	DMA1_pat            ;
 QT00126202      	4.759       	0.20685     	DMA1_pat            ;
 ST00141623      	3.43        	0.511981    	DMA1_pat            ;
 ST00157492      	3.39        	0.232161    	DMA1_pat            ;
 J-719           	3.8         	0.848014    	DMA1_pat            ;
 ST00109042      	1.87        	0.75561     	DMA1_pat            ;
 TD00074975      	3.712       	0.75561     	DMA1_pat            ;
 ST00165541      	2.3         	0.329382    	DMA1_pat            ;
 ST00107000      	4.83        	0.75561     	DMA1_pat            ;
 J-7             	2.7326      	0.506529    	DMA1_pat            ;
 ST00128596      	3.19        	0.511981    	DMA1_pat            ;
 ST00148065      	3.19        	0.32938     	DMA1_pat            ;
 ST00157234      	3.31        	0.506528    	DMA1_pat            ;
 ST00077269      	3.73        	0.509935    	DMA1_pat            ;
 ST00181758      	2.85        	0.505765    	DMA1_pat            ;
 ST00013644      	2.14        	0.854542    	DMA1_pat            ;
 J-6483          	3           	0.41861     	DMA1_pat            ;
 ST00109047      	2.91        	0.75561     	DMA1_pat            ;
 ST00092327      	4.76        	0.329381    	DMA1_pat            ;
 ST00145584      	5.07        	0.381448    	DMA1_pat            ;
 ST00164472      	1.99        	0.917861    	DMA1_pat            ;
 ST00131603      	3.81        	0.75561     	DMA1_pat            ;
 TD00112769      	3.303       	0.615398    	DMA1_pat            ;
 ST00084758      	2.98        	0.846675    	DMA1_pat            ;
 ST00083732      	2.72        	0.280201    	DMA1_pat            ;
 ST00156145      	2.46        	0.51198     	DMA1_pat            ;
 ST00183581      	4.51        	0.329378    	DMA1_pat            ;
 QT00009886      	2.2         	0.75561     	DMA1_pat            ;
 ST00135893      	2.89        	0.75561     	DMA1_pat            ;
 ST00021167      	5.27        	0.295449    	DMA1_pat            ;
 CLD0017         	6.5899      	0.41861     	DMA1_pat            ;
 ST00145575      	2.11        	0.60757     	DMA1_pat            ;
 ST00165274      	4.76        	0.329375    	DMA1_pat            ;
 ST00145531      	1.68        	0.23639     	DMA1_pat            ;
 ST00107005      	3.34        	0.75561     	DMA1_pat            ;
 ST00108501      	3.92        	0.75561     	DMA1_pat            ;
 J-5386          	3.9         	0.843656    	DMA1_pat            ;
 ST00049921      	2.72        	0.511491    	DMA1_pat            ;
 ST00097741      	3.54        	0.75561     	DMA1_pat            ;
 ST00084615      	3.75        	0.846675    	DMA1_pat            ;
 ST00110048      	2.53        	0.75561     	DMA1_pat            ;
 ST00098956      	3.17        	0.75561     	DMA1_pat            ;
 QT00172552      	4.437       	0.328924    	DMA1_pat            ;
 ST00128629      	2.52        	0.509934    	DMA1_pat            ;
 ST00111499      	3.31        	0.75561     	DMA1_pat            ;
 ST00085364      	3.18        	0.848011    	DMA1_pat            ;
 CLD0093         	2.8         	0.51198     	DMA1_pat            ;
 ST00182738      	3.45        	0.514089    	DMA1_pat            ;
 ST00049919      	3.28        	0.5073      	DMA1_pat            ;
 ST00076867      	3.02        	0.509935    	DMA1_pat            ;
 ST00102639      	3.31        	0.75561     	DMA1_pat            ;
 QT00110706      	3.47        	0.75561     	DMA1_pat            ;
 ST00188745      	2.59        	0.60757     	DMA1_pat            ;
 ST00077262      	1.19        	0.509935    	DMA1_pat            ;
 J-8698          	3.4         	0.41861     	DMA1_pat            ;
 ST00103088      	3.77        	0.75561     	DMA1_pat            ;
 ST00103079      	4.24        	0.75561     	DMA1_pat            ;
 ST00123549      	3.62        	0.51198     	DMA1_pat            ;
 FM042585        	5.56        	0.328125    	DMA1_pat            ;
 J-9008          	5.9541      	0.325244    	DMA1_pat            ;
 ST00101198      	2.74        	0.75561     	DMA1_pat            ;
 QT00022277      	5.83        	0.66437     	DMA1_pat            ;
 ST00188488      	2.53        	0.60757     	DMA1_pat            ;
 QT00161770      	3.83        	0.75561     	DMA1_pat            ;
 ST00162968      	3.63        	0.328042    	DMA1_pat            ;
 ST00178720      	3.39        	1.123835    	DMA1_pat            ;
 ST00076863      	3.23        	0.509935    	DMA1_pat            ;
 J-7030          	3.6         	0.75561     	DMA1_pat            ;
 ST00114725      	3.18        	0.75561     	DMA1_pat            ;
 ST00110441      	2.51        	0.75561     	DMA1_pat            ;
 TD00010534      	4.83        	0.323082    	DMA1_pat            ;
 TD00143179      	3.24        	0.32817     	DMA1_pat            ;
 ST00114600      	3.43        	0.75561     	DMA1_pat            ;
 ST00178714      	2.86        	0.843422    	DMA1_pat            ;
 J-9050          	3.7         	0.75561     	DMA1_pat            ;
 ST00121749      	2.92        	0.60757     	DMA1_pat            ;
 TD00171612      	3.635       	0.75561     	DMA1_pat            ;
 FM011807        	4.92        	0.23577     	DMA1_pat            ;
 ST00076837      	3.89        	0.509936    	DMA1_pat            ;
 TD00016004      	4.9         	0.599647    	DMA1_pat            ;
 ST00076344      	3.05        	0.75561     	DMA1_pat            ;
 ST00112910      	2.82        	0.75561     	DMA1_pat            ;
 ST00114594      	3.31        	0.75561     	DMA1_pat            ;
 ST00176985      	4.51        	0.75561     	DMA1_pat            ;
 ST00113749      	3.99        	0.75561     	DMA1_pat            ;
 ST00070209      	3.24        	0.325251    	DMA1_pat            ;
 TN003266        	3.14        	0.75561     	DMA1_pat            ;
 ST00129381      	3.45        	0.325251    	DMA1_pat            ;
 ST00142713      	2.97        	0.75561     	DMA1_pat            ;
 ST00166752      	4.93        	0.335036    	DMA1_pat            ;
 ST00179134      	2.99        	0.842744    	DMA1_pat            ;
 ST00135981      	2.91        	0.75561     	DMA1_pat            ;
 ST00122529      	3.41        	0.328102    	DMA1_pat            ;
 TD00010076      	4.42        	0.336587    	DMA1_pat            ;
 ST00110158      	2.66        	0.75561     	DMA1_pat            ;
 TD00020522      	5.5         	0.329608    	DMA1_pat            ;
 BJD00010445     	3.049       	0.75561     	DMA1_pat            ;
 QT00066355      	4.19        	0.75561     	DMA1_pat            ;
 ST00141938      	2.56        	0.75561     	DMA1_pat            ;
 FM064096        	3.61        	0.328933    	DMA1_pat            ;
 ST00182262      	3.1         	0.75561     	DMA1_pat            ;
 ST00183578      	3.38        	0.511979    	DMA1_pat            ;
 ST00110037      	2.64        	0.75561     	DMA1_pat            ;
 ST00139484      	3.89        	0.75561     	DMA1_pat            ;
 ST00128654      	5.98        	0.509935    	DMA1_pat            ;
 ST00167892      	2.2         	0.585978    	DMA1_pat            ;
 ST00188887      	3.39        	0.511979    	DMA1_pat            ;
 ST00180901      	3.78        	0.502196    	DMA1_pat            ;
 ST00134106      	4.12        	0.514088    	DMA1_pat            ;
 ST00123548      	2.88        	0.511979    	DMA1_pat            ;
 ST00182684      	3.68        	0.75561     	DMA1_pat            ;
 ST00115952      	4.28        	0.75561     	DMA1_pat            ;
 ST00185818      	2.95        	0.75561     	DMA1_pat            ;
 ST00112918      	2.73        	0.75561     	DMA1_pat            ;
 ST00163612      	3.14        	0.206816    	DMA1_pat            ;
 ST00014434      	6.02        	0.23577     	DMA1_pat            ;
 ST00184109      	5.43        	0.236394    	DMA1_pat            ;
 ST00069293      	4.64        	0.23577     	DMA1_pat            ;
 ST00150872      	3.58        	0.608136    	DMA1_pat            ;
 J-50            	4.7         	0.328081    	DMA1_pat            ;
 QT00162304      	3.21        	0.228335    	DMA1_pat            ;
 ST00183576      	3.43        	0.511979    	DMA1_pat            ;
 TD00011033      	4.48        	0.281465    	DMA1_pat            ;
 ST00049925      	2.18        	0.509012    	DMA1_pat            ;
 ST00127129      	2.96        	0.75561     	DMA1_pat            ;
 TD00185114      	2.826       	0.50496     	DMA1_pat            ;
 ST00105152      	3.23        	0.75561     	DMA1_pat            ;
 ST00015647      	3.59        	0.325254    	DMA1_pat            ;
 ST00154172      	2.12        	0.329384    	DMA1_pat            ;
 ST00046893      	3.4         	0.329383    	DMA1_pat            ;
 ST00173494      	2.78        	0.506527    	DMA1_pat            ;
 FM050043        	3.1         	0.325253    	DMA1_pat            ;
 ST00123526      	3.09        	0.511978    	DMA1_pat            ;
 ST00164011      	3.05        	0.804363    	DMA1_pat            ;
 ST00183513      	3.82        	0.511978    	DMA1_pat            ;
 ST00112902      	3.48        	0.75561     	DMA1_pat            ;
 ST00182070      	3.37        	0.75561     	DMA1_pat            ;
 QT00020748      	3.58        	0.75561     	DMA1_pat            ;
 ST00103083      	2.52        	0.75561     	DMA1_pat            ;
 TD00185041      	0.599       	0.506527    	DMA1_pat            ;
 TD00128732      	2.341       	0.242602    	DMA1_pat            ;
 ST00124965      	3.02        	0.506526    	DMA1_pat            ;
 ST00187987      	5.87        	0.329383    	DMA1_pat            ;
 ST00170403      	3.54        	0.231895    	DMA1_pat            ;
 QT00126343      	3.763       	0.206883    	DMA1_pat            ;
 QT00183485      	4.1         	0.71039     	DMA1_pat            ;
 ST00054610      	7.58        	0.506494    	DMA1_pat            ;
 ST00141921      	2.96        	0.75561     	DMA1_pat            ;
 ST00163663      	2.71        	0.21166     	DMA1_pat            ;
 ST00179631      	4.51        	0.511978    	DMA1_pat            ;
 ST00154240      	3.63        	0.281404    	DMA1_pat            ;
 ST00111353      	2.12        	0.75561     	DMA1_pat            ;
 ST00143222      	2.13        	0.81027     	DMA1_pat            ;
 TN004671        	3.65        	0.75561     	DMA1_pat            ;
 TD00022357      	2.8         	0.511491    	DMA1_pat            ;
 J-2416          	2.48        	0.842551    	DMA1_pat            ;
 ST00015583      	6.21        	19.17308    	DMA1_pat            ;
 TN002568        	3.3         	0.75561     	DMA1_pat            ;
 QT00126305      	4.643       	0.804311    	DMA1_pat            ;
 ST00170397      	3.05        	0.230126    	DMA1_pat            ;
 ST00166107      	3.53        	0.32936     	DMA1_pat            ;
 ST00187359      	3.5         	0.511978    	DMA1_pat            ;
 ST00049928      	3.27        	0.75561     	DMA1_pat            ;
 ST00176143      	4.42        	0.43847     	DMA1_pat            ;
 ST00162873      	2.82        	0.326316    	DMA1_pat            ;
 ST00154178      	3.43        	0.328943    	DMA1_pat            ;
 ST00181310      	4.06        	0.504959    	DMA1_pat            ;
 ST00188517      	1.47        	0.60757     	DMA1_pat            ;
 QT00116952      	5.12        	0.75561     	DMA1_pat            ;
 ST00083737      	3.46        	0.75561     	DMA1_pat            ;
 ST00150427      	2.41        	0.335026    	DMA1_pat            ;
 ST00110007      	2.95        	0.75561     	DMA1_pat            ;
 ST00177119      	4.04        	0.385288    	DMA1_pat            ;
 ST00139590      	2.54        	0.490796    	DMA1_pat            ;
 J-4654          	3.54        	0.41861     	DMA1_pat            ;
 QT00170391      	1.67        	0.43847     	DMA1_pat            ;
 ST00166743      	3.21        	0.335027    	DMA1_pat            ;
 ST00077009      	4.16        	0.514088    	DMA1_pat            ;
 ST00128789      	3.02        	0.842145    	DMA1_pat            ;
 ST00105249      	3.53        	0.75561     	DMA1_pat            ;
 J-8360          	3.5         	0.41861     	DMA1_pat            ;
 ST00173911      	3.76        	0.502017    	DMA1_pat            ;
 FM009538        	3.54        	0.842713    	DMA1_pat            ;
 ST00102589      	3.22        	0.75561     	DMA1_pat            ;
 ST00099489      	3.28        	0.75561     	DMA1_pat            ;
 ST00054599      	4.83        	0.506664    	DMA1_pat            ;
 ST00122255      	2.94        	0.506526    	DMA1_pat            ;
 ST00144637      	3.66        	0.75561     	DMA1_pat            ;
 ST00146883      	5.06        	0.329381    	DMA1_pat            ;
 ST00146582      	2.74        	0.329304    	DMA1_pat            ;
 ST00186126      	3.64        	0.514088    	DMA1_pat            ;
 QT00005272      	4.846       	0.298414    	DMA1_pat            ;
 ST00174118      	2.02        	0.187021    	DMA1_pat            ;
 ST00064456      	4.23        	0.506526    	DMA1_pat            ;
 ST00188635      	1.58        	0.84112     	DMA1_pat            ;
 ST00162746      	3.64        	0.329562    	DMA1_pat            ;
 ST00069368      	5.05        	0.43847     	DMA1_pat            ;
 ST00028495      	2.9         	0.325257    	DMA1_pat            ;
 ST00171509      	4.13        	0.328011    	DMA1_pat            ;
 ST00069305      	3.81        	0.17897     	DMA1_pat            ;
 ST00121538      	2.13        	0.86707     	DMA1_pat            ;
 TD00074145      	2.839       	0.75561     	DMA1_pat            ;
 ST00101211      	2.9         	0.75561     	DMA1_pat            ;
 ST00103827      	2.81        	0.75561     	DMA1_pat            ;
 ST00188782      	3.8         	0.41861     	DMA1_pat            ;